file 9697008 1469723350                                         
version 2
run General-0-20160728-18:27:25-21216
attr configname General
attr datetime 20160728-18:27:25
attr experiment General
attr inifile omnetpp.ini
attr iterationvars ""
attr iterationvars2 $repetition=0
attr measurement ""
attr network Net80211test
attr processid 21216
attr repetition 0
attr replication #0
attr resultdir results
attr runnumber 0
attr seedset 0
param **.constraintAreaMaxX 600m
param **.constraintAreaMaxY 400m
param **.constraintAreaMaxZ 0m
param **.constraintAreaMinX 0m
param **.constraintAreaMinY 0m
param **.constraintAreaMinZ 0m
param **.host*.mobility.initFromDisplayString false
param **.host*.mobility.updateInterval 100ms
param **.host*.mobilityType "\"VirtualSpringMobility\""
param **.host[*].networkLayerType "\"IPv4ExtNetworkLayer\""
param **.host[*].udpType "\"UDPExt\""
param **.ip.forceBroadcast true
param **.udpApp[0].destAddresses "\"255.255.255.255\""
param **.udpApp[0].destPort 100
param **.udpApp[0].localAddress "\"\""
param **.udpApp[0].localPort 100
param **.udpApp[0].messageLength 512B
param **.udpApp[0].receiveBroadcast true
param **.udpApp[0].sendInterval 0.5s
param **.udpApp[0].startTime "truncnormal(5s, 1s)"
param **.wlan[*].bitrate 2Mbps
param **.wlan[*].mac.address "\"auto\""
param **.wlan[*].mac.cwMinBroadcast 31
param **.wlan[*].mac.cwMinData 7
param **.wlan[*].mac.maxQueueSize 14
param **.wlan[*].mac.retryLimit 7
param **.wlan[*].mac.rtsThresholdBytes 3000B
param **.wlan[*].macType "\"Ieee80211MacExt\""
param **.wlan[*].mgmt.frameCapacity 10
param **.wlan[*].mgmtType "\"Ieee80211MgmtAdhocExt\""
param **.wlan[*].radio.receiver.sensitivity -85dBm
param **.wlan[*].radio.receiver.snirThreshold 4dB
param **.wlan[*].radio.receiverType "\"Ieee80211ScalarReceiverExt\""
param **.wlan[*].radio.transmitter.power 100mW
param *.host[*].numUdpApps 1
param *.host[*].udpApp[*].typename "\"UDPBasicRecharge\""
param *.numHosts 18

vector 22  Net80211test.host[0].wlan[0].mac.ctn[0]  state:vector  ETV
attr interpolationmode  none
attr source  stateChanged
attr title  "contention state, vector"
vector 45  Net80211test.host[1].wlan[0].mac.ctn[0]  state:vector  ETV
attr interpolationmode  none
attr source  stateChanged
attr title  "contention state, vector"
vector 68  Net80211test.host[2].wlan[0].mac.ctn[0]  state:vector  ETV
attr interpolationmode  none
attr source  stateChanged
attr title  "contention state, vector"
vector 91  Net80211test.host[3].wlan[0].mac.ctn[0]  state:vector  ETV
attr interpolationmode  none
attr source  stateChanged
attr title  "contention state, vector"
vector 114  Net80211test.host[4].wlan[0].mac.ctn[0]  state:vector  ETV
attr interpolationmode  none
attr source  stateChanged
attr title  "contention state, vector"
vector 137  Net80211test.host[5].wlan[0].mac.ctn[0]  state:vector  ETV
attr interpolationmode  none
attr source  stateChanged
attr title  "contention state, vector"
vector 160  Net80211test.host[6].wlan[0].mac.ctn[0]  state:vector  ETV
attr interpolationmode  none
attr source  stateChanged
attr title  "contention state, vector"
vector 183  Net80211test.host[7].wlan[0].mac.ctn[0]  state:vector  ETV
attr interpolationmode  none
attr source  stateChanged
attr title  "contention state, vector"
vector 206  Net80211test.host[8].wlan[0].mac.ctn[0]  state:vector  ETV
attr interpolationmode  none
attr source  stateChanged
attr title  "contention state, vector"
vector 229  Net80211test.host[9].wlan[0].mac.ctn[0]  state:vector  ETV
attr interpolationmode  none
attr source  stateChanged
attr title  "contention state, vector"
vector 252  Net80211test.host[10].wlan[0].mac.ctn[0]  state:vector  ETV
attr interpolationmode  none
attr source  stateChanged
attr title  "contention state, vector"
vector 275  Net80211test.host[11].wlan[0].mac.ctn[0]  state:vector  ETV
attr interpolationmode  none
attr source  stateChanged
attr title  "contention state, vector"
vector 298  Net80211test.host[12].wlan[0].mac.ctn[0]  state:vector  ETV
attr interpolationmode  none
attr source  stateChanged
attr title  "contention state, vector"
vector 321  Net80211test.host[13].wlan[0].mac.ctn[0]  state:vector  ETV
attr interpolationmode  none
attr source  stateChanged
attr title  "contention state, vector"
vector 344  Net80211test.host[14].wlan[0].mac.ctn[0]  state:vector  ETV
attr interpolationmode  none
attr source  stateChanged
attr title  "contention state, vector"
vector 367  Net80211test.host[15].wlan[0].mac.ctn[0]  state:vector  ETV
attr interpolationmode  none
attr source  stateChanged
attr title  "contention state, vector"
vector 390  Net80211test.host[16].wlan[0].mac.ctn[0]  state:vector  ETV
attr interpolationmode  none
attr source  stateChanged
attr title  "contention state, vector"
vector 413  Net80211test.host[17].wlan[0].mac.ctn[0]  state:vector  ETV
attr interpolationmode  none
attr source  stateChanged
attr title  "contention state, vector"
vector 18  Net80211test.host[0].wlan[0].radio  radioMode:vector  ETV
attr interpolationmode  sample-hold
attr source  radioModeChanged
attr title  "Radio mode, vector"
vector 21  Net80211test.host[0].wlan[0].radio  radioChannel:vector  ETV
attr interpolationmode  sample-hold
attr source  radioChannelChanged
attr title  "Radio channel, vector"
vector 41  Net80211test.host[1].wlan[0].radio  radioMode:vector  ETV
attr interpolationmode  sample-hold
attr source  radioModeChanged
attr title  "Radio mode, vector"
vector 44  Net80211test.host[1].wlan[0].radio  radioChannel:vector  ETV
attr interpolationmode  sample-hold
attr source  radioChannelChanged
attr title  "Radio channel, vector"
vector 64  Net80211test.host[2].wlan[0].radio  radioMode:vector  ETV
attr interpolationmode  sample-hold
attr source  radioModeChanged
attr title  "Radio mode, vector"
vector 67  Net80211test.host[2].wlan[0].radio  radioChannel:vector  ETV
attr interpolationmode  sample-hold
attr source  radioChannelChanged
attr title  "Radio channel, vector"
vector 87  Net80211test.host[3].wlan[0].radio  radioMode:vector  ETV
attr interpolationmode  sample-hold
attr source  radioModeChanged
attr title  "Radio mode, vector"
vector 90  Net80211test.host[3].wlan[0].radio  radioChannel:vector  ETV
attr interpolationmode  sample-hold
attr source  radioChannelChanged
attr title  "Radio channel, vector"
vector 110  Net80211test.host[4].wlan[0].radio  radioMode:vector  ETV
attr interpolationmode  sample-hold
attr source  radioModeChanged
attr title  "Radio mode, vector"
vector 113  Net80211test.host[4].wlan[0].radio  radioChannel:vector  ETV
attr interpolationmode  sample-hold
attr source  radioChannelChanged
attr title  "Radio channel, vector"
vector 133  Net80211test.host[5].wlan[0].radio  radioMode:vector  ETV
attr interpolationmode  sample-hold
attr source  radioModeChanged
attr title  "Radio mode, vector"
vector 136  Net80211test.host[5].wlan[0].radio  radioChannel:vector  ETV
attr interpolationmode  sample-hold
attr source  radioChannelChanged
attr title  "Radio channel, vector"
vector 156  Net80211test.host[6].wlan[0].radio  radioMode:vector  ETV
attr interpolationmode  sample-hold
attr source  radioModeChanged
attr title  "Radio mode, vector"
vector 159  Net80211test.host[6].wlan[0].radio  radioChannel:vector  ETV
attr interpolationmode  sample-hold
attr source  radioChannelChanged
attr title  "Radio channel, vector"
vector 179  Net80211test.host[7].wlan[0].radio  radioMode:vector  ETV
attr interpolationmode  sample-hold
attr source  radioModeChanged
attr title  "Radio mode, vector"
vector 182  Net80211test.host[7].wlan[0].radio  radioChannel:vector  ETV
attr interpolationmode  sample-hold
attr source  radioChannelChanged
attr title  "Radio channel, vector"
vector 202  Net80211test.host[8].wlan[0].radio  radioMode:vector  ETV
attr interpolationmode  sample-hold
attr source  radioModeChanged
attr title  "Radio mode, vector"
vector 205  Net80211test.host[8].wlan[0].radio  radioChannel:vector  ETV
attr interpolationmode  sample-hold
attr source  radioChannelChanged
attr title  "Radio channel, vector"
vector 225  Net80211test.host[9].wlan[0].radio  radioMode:vector  ETV
attr interpolationmode  sample-hold
attr source  radioModeChanged
attr title  "Radio mode, vector"
vector 228  Net80211test.host[9].wlan[0].radio  radioChannel:vector  ETV
attr interpolationmode  sample-hold
attr source  radioChannelChanged
attr title  "Radio channel, vector"
vector 248  Net80211test.host[10].wlan[0].radio  radioMode:vector  ETV
attr interpolationmode  sample-hold
attr source  radioModeChanged
attr title  "Radio mode, vector"
vector 251  Net80211test.host[10].wlan[0].radio  radioChannel:vector  ETV
attr interpolationmode  sample-hold
attr source  radioChannelChanged
attr title  "Radio channel, vector"
vector 271  Net80211test.host[11].wlan[0].radio  radioMode:vector  ETV
attr interpolationmode  sample-hold
attr source  radioModeChanged
attr title  "Radio mode, vector"
vector 274  Net80211test.host[11].wlan[0].radio  radioChannel:vector  ETV
attr interpolationmode  sample-hold
attr source  radioChannelChanged
attr title  "Radio channel, vector"
vector 294  Net80211test.host[12].wlan[0].radio  radioMode:vector  ETV
attr interpolationmode  sample-hold
attr source  radioModeChanged
attr title  "Radio mode, vector"
vector 297  Net80211test.host[12].wlan[0].radio  radioChannel:vector  ETV
attr interpolationmode  sample-hold
attr source  radioChannelChanged
attr title  "Radio channel, vector"
vector 317  Net80211test.host[13].wlan[0].radio  radioMode:vector  ETV
attr interpolationmode  sample-hold
attr source  radioModeChanged
attr title  "Radio mode, vector"
vector 320  Net80211test.host[13].wlan[0].radio  radioChannel:vector  ETV
attr interpolationmode  sample-hold
attr source  radioChannelChanged
attr title  "Radio channel, vector"
vector 340  Net80211test.host[14].wlan[0].radio  radioMode:vector  ETV
attr interpolationmode  sample-hold
attr source  radioModeChanged
attr title  "Radio mode, vector"
vector 343  Net80211test.host[14].wlan[0].radio  radioChannel:vector  ETV
attr interpolationmode  sample-hold
attr source  radioChannelChanged
attr title  "Radio channel, vector"
vector 363  Net80211test.host[15].wlan[0].radio  radioMode:vector  ETV
attr interpolationmode  sample-hold
attr source  radioModeChanged
attr title  "Radio mode, vector"
vector 366  Net80211test.host[15].wlan[0].radio  radioChannel:vector  ETV
attr interpolationmode  sample-hold
attr source  radioChannelChanged
attr title  "Radio channel, vector"
vector 386  Net80211test.host[16].wlan[0].radio  radioMode:vector  ETV
attr interpolationmode  sample-hold
attr source  radioModeChanged
attr title  "Radio mode, vector"
vector 389  Net80211test.host[16].wlan[0].radio  radioChannel:vector  ETV
attr interpolationmode  sample-hold
attr source  radioChannelChanged
attr title  "Radio channel, vector"
vector 409  Net80211test.host[17].wlan[0].radio  radioMode:vector  ETV
attr interpolationmode  sample-hold
attr source  radioModeChanged
attr title  "Radio mode, vector"
vector 412  Net80211test.host[17].wlan[0].radio  radioChannel:vector  ETV
attr interpolationmode  sample-hold
attr source  radioChannelChanged
attr title  "Radio channel, vector"
vector 19  Net80211test.host[0].wlan[0].radio  receptionState:vector  ETV
attr interpolationmode  sample-hold
attr source  receptionStateChanged
attr title  "Radio reception state, vector"
vector 42  Net80211test.host[1].wlan[0].radio  receptionState:vector  ETV
attr interpolationmode  sample-hold
attr source  receptionStateChanged
attr title  "Radio reception state, vector"
vector 65  Net80211test.host[2].wlan[0].radio  receptionState:vector  ETV
attr interpolationmode  sample-hold
attr source  receptionStateChanged
attr title  "Radio reception state, vector"
vector 88  Net80211test.host[3].wlan[0].radio  receptionState:vector  ETV
attr interpolationmode  sample-hold
attr source  receptionStateChanged
attr title  "Radio reception state, vector"
vector 111  Net80211test.host[4].wlan[0].radio  receptionState:vector  ETV
attr interpolationmode  sample-hold
attr source  receptionStateChanged
attr title  "Radio reception state, vector"
vector 134  Net80211test.host[5].wlan[0].radio  receptionState:vector  ETV
attr interpolationmode  sample-hold
attr source  receptionStateChanged
attr title  "Radio reception state, vector"
vector 157  Net80211test.host[6].wlan[0].radio  receptionState:vector  ETV
attr interpolationmode  sample-hold
attr source  receptionStateChanged
attr title  "Radio reception state, vector"
vector 180  Net80211test.host[7].wlan[0].radio  receptionState:vector  ETV
attr interpolationmode  sample-hold
attr source  receptionStateChanged
attr title  "Radio reception state, vector"
vector 203  Net80211test.host[8].wlan[0].radio  receptionState:vector  ETV
attr interpolationmode  sample-hold
attr source  receptionStateChanged
attr title  "Radio reception state, vector"
vector 226  Net80211test.host[9].wlan[0].radio  receptionState:vector  ETV
attr interpolationmode  sample-hold
attr source  receptionStateChanged
attr title  "Radio reception state, vector"
vector 249  Net80211test.host[10].wlan[0].radio  receptionState:vector  ETV
attr interpolationmode  sample-hold
attr source  receptionStateChanged
attr title  "Radio reception state, vector"
vector 272  Net80211test.host[11].wlan[0].radio  receptionState:vector  ETV
attr interpolationmode  sample-hold
attr source  receptionStateChanged
attr title  "Radio reception state, vector"
vector 295  Net80211test.host[12].wlan[0].radio  receptionState:vector  ETV
attr interpolationmode  sample-hold
attr source  receptionStateChanged
attr title  "Radio reception state, vector"
vector 318  Net80211test.host[13].wlan[0].radio  receptionState:vector  ETV
attr interpolationmode  sample-hold
attr source  receptionStateChanged
attr title  "Radio reception state, vector"
vector 341  Net80211test.host[14].wlan[0].radio  receptionState:vector  ETV
attr interpolationmode  sample-hold
attr source  receptionStateChanged
attr title  "Radio reception state, vector"
vector 364  Net80211test.host[15].wlan[0].radio  receptionState:vector  ETV
attr interpolationmode  sample-hold
attr source  receptionStateChanged
attr title  "Radio reception state, vector"
vector 387  Net80211test.host[16].wlan[0].radio  receptionState:vector  ETV
attr interpolationmode  sample-hold
attr source  receptionStateChanged
attr title  "Radio reception state, vector"
vector 410  Net80211test.host[17].wlan[0].radio  receptionState:vector  ETV
attr interpolationmode  sample-hold
attr source  receptionStateChanged
attr title  "Radio reception state, vector"
vector 254  Net80211test.host[11].udpApp[0]  sentPk:vector(packetBytes)  ETV
attr interpolationmode  none
attr source  sentPk
attr title  "packets sent, vector(packetBytes)"
vector 257  Net80211test.host[11].udp  sentPk:vector(packetBytes)  ETV
attr interpolationmode  none
attr source  sentPk
attr title  "packets sent, vector(packetBytes)"
vector 265  Net80211test.host[11].lo0.lo  rcvdPkFromHL:vector(packetBytes)  ETV
attr interpolationmode  none
attr source  packetReceivedFromUpper
attr title  "packets received from higher layer, vector(packetBytes)"
vector 266  Net80211test.host[11].lo0.lo  passedUpPk:vector(packetBytes)  ETV
attr interpolationmode  none
attr source  packetSentToUpper
attr title  "packets passed to higher layer, vector(packetBytes)"
vector 269  Net80211test.host[11].wlan[0].mac  rcvdPkFromHL:vector(packetBytes)  ETV
attr interpolationmode  none
attr source  packetReceivedFromUpper
attr title  "packets received from higher layer, vector(packetBytes)"
vector 258  Net80211test.host[11].udp  rcvdPk:vector(packetBytes)  ETV
attr interpolationmode  none
attr source  rcvdPk
attr title  "packets received, vector(packetBytes)"
vector 259  Net80211test.host[11].udp  passedUpPk:vector(count)  ETV
attr interpolationmode  none
attr title  "packets passed up, vector(count)"
vector 253  Net80211test.host[11].udpApp[0]  rcvdPk:vector(packetBytes)  ETV
attr interpolationmode  none
attr source  rcvdPk
attr title  "packets received, vector(packetBytes)"
vector 255  Net80211test.host[11].udpApp[0]  rcvdPkLifetime:vector  ETV
attr interpolationmode  none
attr source  messageAge(rcvdPk)
attr title  "received packet lifetime, vector"
attr unit  s
vector 268  Net80211test.host[11].wlan[0].mac  sentDownPk:vector(packetBytes)  ETV
attr interpolationmode  none
attr source  packetSentToLower
attr title  "packets sent to lower layer, vector(packetBytes)"
vector 273  Net80211test.host[11].wlan[0].radio  transmissionState:vector  ETV
attr interpolationmode  sample-hold
attr source  transmissionStateChanged
attr title  "Radio transmission state, vector"
vector 178  Net80211test.host[7].wlan[0].mac  rcvdPkFromLL:vector(packetBytes)  ETV
attr interpolationmode  none
attr source  packetReceivedFromLower
attr title  "packets received from lower layer, vector(packetBytes)"
vector 175  Net80211test.host[7].wlan[0].mac  passedUpPk:vector(packetBytes)  ETV
attr interpolationmode  none
attr source  packetSentToUpper
attr title  "packets passed to higher layer, vector(packetBytes)"
vector 166  Net80211test.host[7].udp  rcvdPk:vector(packetBytes)  ETV
attr interpolationmode  none
attr source  rcvdPk
attr title  "packets received, vector(packetBytes)"
vector 168  Net80211test.host[7].udp  droppedPkWrongPort:vector(count)  ETV
attr interpolationmode  none
attr title  "packets dropped (wrong port), vector(count)"
vector 155  Net80211test.host[6].wlan[0].mac  rcvdPkFromLL:vector(packetBytes)  ETV
attr interpolationmode  none
attr source  packetReceivedFromLower
attr title  "packets received from lower layer, vector(packetBytes)"
vector 152  Net80211test.host[6].wlan[0].mac  passedUpPk:vector(packetBytes)  ETV
attr interpolationmode  none
attr source  packetSentToUpper
attr title  "packets passed to higher layer, vector(packetBytes)"
vector 143  Net80211test.host[6].udp  rcvdPk:vector(packetBytes)  ETV
attr interpolationmode  none
attr source  rcvdPk
attr title  "packets received, vector(packetBytes)"
vector 145  Net80211test.host[6].udp  droppedPkWrongPort:vector(count)  ETV
attr interpolationmode  none
attr title  "packets dropped (wrong port), vector(count)"
vector 132  Net80211test.host[5].wlan[0].mac  rcvdPkFromLL:vector(packetBytes)  ETV
attr interpolationmode  none
attr source  packetReceivedFromLower
attr title  "packets received from lower layer, vector(packetBytes)"
vector 129  Net80211test.host[5].wlan[0].mac  passedUpPk:vector(packetBytes)  ETV
attr interpolationmode  none
attr source  packetSentToUpper
attr title  "packets passed to higher layer, vector(packetBytes)"
vector 120  Net80211test.host[5].udp  rcvdPk:vector(packetBytes)  ETV
attr interpolationmode  none
attr source  rcvdPk
attr title  "packets received, vector(packetBytes)"
vector 122  Net80211test.host[5].udp  droppedPkWrongPort:vector(count)  ETV
attr interpolationmode  none
attr title  "packets dropped (wrong port), vector(count)"
vector 201  Net80211test.host[8].wlan[0].mac  rcvdPkFromLL:vector(packetBytes)  ETV
attr interpolationmode  none
attr source  packetReceivedFromLower
attr title  "packets received from lower layer, vector(packetBytes)"
vector 198  Net80211test.host[8].wlan[0].mac  passedUpPk:vector(packetBytes)  ETV
attr interpolationmode  none
attr source  packetSentToUpper
attr title  "packets passed to higher layer, vector(packetBytes)"
vector 189  Net80211test.host[8].udp  rcvdPk:vector(packetBytes)  ETV
attr interpolationmode  none
attr source  rcvdPk
attr title  "packets received, vector(packetBytes)"
vector 191  Net80211test.host[8].udp  droppedPkWrongPort:vector(count)  ETV
attr interpolationmode  none
attr title  "packets dropped (wrong port), vector(count)"
vector 109  Net80211test.host[4].wlan[0].mac  rcvdPkFromLL:vector(packetBytes)  ETV
attr interpolationmode  none
attr source  packetReceivedFromLower
attr title  "packets received from lower layer, vector(packetBytes)"
vector 106  Net80211test.host[4].wlan[0].mac  passedUpPk:vector(packetBytes)  ETV
attr interpolationmode  none
attr source  packetSentToUpper
attr title  "packets passed to higher layer, vector(packetBytes)"
vector 97  Net80211test.host[4].udp  rcvdPk:vector(packetBytes)  ETV
attr interpolationmode  none
attr source  rcvdPk
attr title  "packets received, vector(packetBytes)"
vector 99  Net80211test.host[4].udp  droppedPkWrongPort:vector(count)  ETV
attr interpolationmode  none
attr title  "packets dropped (wrong port), vector(count)"
vector 17  Net80211test.host[0].wlan[0].mac  rcvdPkFromLL:vector(packetBytes)  ETV
attr interpolationmode  none
attr source  packetReceivedFromLower
attr title  "packets received from lower layer, vector(packetBytes)"
vector 14  Net80211test.host[0].wlan[0].mac  passedUpPk:vector(packetBytes)  ETV
attr interpolationmode  none
attr source  packetSentToUpper
attr title  "packets passed to higher layer, vector(packetBytes)"
vector 5  Net80211test.host[0].udp  rcvdPk:vector(packetBytes)  ETV
attr interpolationmode  none
attr source  rcvdPk
attr title  "packets received, vector(packetBytes)"
vector 7  Net80211test.host[0].udp  droppedPkWrongPort:vector(count)  ETV
attr interpolationmode  none
attr title  "packets dropped (wrong port), vector(count)"
vector 247  Net80211test.host[10].wlan[0].mac  rcvdPkFromLL:vector(packetBytes)  ETV
attr interpolationmode  none
attr source  packetReceivedFromLower
attr title  "packets received from lower layer, vector(packetBytes)"
vector 244  Net80211test.host[10].wlan[0].mac  passedUpPk:vector(packetBytes)  ETV
attr interpolationmode  none
attr source  packetSentToUpper
attr title  "packets passed to higher layer, vector(packetBytes)"
vector 235  Net80211test.host[10].udp  rcvdPk:vector(packetBytes)  ETV
attr interpolationmode  none
attr source  rcvdPk
attr title  "packets received, vector(packetBytes)"
vector 237  Net80211test.host[10].udp  droppedPkWrongPort:vector(count)  ETV
attr interpolationmode  none
attr title  "packets dropped (wrong port), vector(count)"
vector 63  Net80211test.host[2].wlan[0].mac  rcvdPkFromLL:vector(packetBytes)  ETV
attr interpolationmode  none
attr source  packetReceivedFromLower
attr title  "packets received from lower layer, vector(packetBytes)"
vector 60  Net80211test.host[2].wlan[0].mac  passedUpPk:vector(packetBytes)  ETV
attr interpolationmode  none
attr source  packetSentToUpper
attr title  "packets passed to higher layer, vector(packetBytes)"
vector 51  Net80211test.host[2].udp  rcvdPk:vector(packetBytes)  ETV
attr interpolationmode  none
attr source  rcvdPk
attr title  "packets received, vector(packetBytes)"
vector 53  Net80211test.host[2].udp  droppedPkWrongPort:vector(count)  ETV
attr interpolationmode  none
attr title  "packets dropped (wrong port), vector(count)"
vector 316  Net80211test.host[13].wlan[0].mac  rcvdPkFromLL:vector(packetBytes)  ETV
attr interpolationmode  none
attr source  packetReceivedFromLower
attr title  "packets received from lower layer, vector(packetBytes)"
vector 313  Net80211test.host[13].wlan[0].mac  passedUpPk:vector(packetBytes)  ETV
attr interpolationmode  none
attr source  packetSentToUpper
attr title  "packets passed to higher layer, vector(packetBytes)"
vector 304  Net80211test.host[13].udp  rcvdPk:vector(packetBytes)  ETV
attr interpolationmode  none
attr source  rcvdPk
attr title  "packets received, vector(packetBytes)"
vector 306  Net80211test.host[13].udp  droppedPkWrongPort:vector(count)  ETV
attr interpolationmode  none
attr title  "packets dropped (wrong port), vector(count)"
vector 362  Net80211test.host[15].wlan[0].mac  rcvdPkFromLL:vector(packetBytes)  ETV
attr interpolationmode  none
attr source  packetReceivedFromLower
attr title  "packets received from lower layer, vector(packetBytes)"
vector 359  Net80211test.host[15].wlan[0].mac  passedUpPk:vector(packetBytes)  ETV
attr interpolationmode  none
attr source  packetSentToUpper
attr title  "packets passed to higher layer, vector(packetBytes)"
vector 350  Net80211test.host[15].udp  rcvdPk:vector(packetBytes)  ETV
attr interpolationmode  none
attr source  rcvdPk
attr title  "packets received, vector(packetBytes)"
vector 352  Net80211test.host[15].udp  droppedPkWrongPort:vector(count)  ETV
attr interpolationmode  none
attr title  "packets dropped (wrong port), vector(count)"
vector 86  Net80211test.host[3].wlan[0].mac  rcvdPkFromLL:vector(packetBytes)  ETV
attr interpolationmode  none
attr source  packetReceivedFromLower
attr title  "packets received from lower layer, vector(packetBytes)"
vector 83  Net80211test.host[3].wlan[0].mac  passedUpPk:vector(packetBytes)  ETV
attr interpolationmode  none
attr source  packetSentToUpper
attr title  "packets passed to higher layer, vector(packetBytes)"
vector 74  Net80211test.host[3].udp  rcvdPk:vector(packetBytes)  ETV
attr interpolationmode  none
attr source  rcvdPk
attr title  "packets received, vector(packetBytes)"
vector 76  Net80211test.host[3].udp  droppedPkWrongPort:vector(count)  ETV
attr interpolationmode  none
attr title  "packets dropped (wrong port), vector(count)"
vector 293  Net80211test.host[12].wlan[0].mac  rcvdPkFromLL:vector(packetBytes)  ETV
attr interpolationmode  none
attr source  packetReceivedFromLower
attr title  "packets received from lower layer, vector(packetBytes)"
vector 290  Net80211test.host[12].wlan[0].mac  passedUpPk:vector(packetBytes)  ETV
attr interpolationmode  none
attr source  packetSentToUpper
attr title  "packets passed to higher layer, vector(packetBytes)"
vector 281  Net80211test.host[12].udp  rcvdPk:vector(packetBytes)  ETV
attr interpolationmode  none
attr source  rcvdPk
attr title  "packets received, vector(packetBytes)"
vector 283  Net80211test.host[12].udp  droppedPkWrongPort:vector(count)  ETV
attr interpolationmode  none
attr title  "packets dropped (wrong port), vector(count)"
vector 224  Net80211test.host[9].wlan[0].mac  rcvdPkFromLL:vector(packetBytes)  ETV
attr interpolationmode  none
attr source  packetReceivedFromLower
attr title  "packets received from lower layer, vector(packetBytes)"
vector 221  Net80211test.host[9].wlan[0].mac  passedUpPk:vector(packetBytes)  ETV
attr interpolationmode  none
attr source  packetSentToUpper
attr title  "packets passed to higher layer, vector(packetBytes)"
vector 212  Net80211test.host[9].udp  rcvdPk:vector(packetBytes)  ETV
attr interpolationmode  none
attr source  rcvdPk
attr title  "packets received, vector(packetBytes)"
vector 214  Net80211test.host[9].udp  droppedPkWrongPort:vector(count)  ETV
attr interpolationmode  none
attr title  "packets dropped (wrong port), vector(count)"
vector 385  Net80211test.host[16].wlan[0].mac  rcvdPkFromLL:vector(packetBytes)  ETV
attr interpolationmode  none
attr source  packetReceivedFromLower
attr title  "packets received from lower layer, vector(packetBytes)"
vector 382  Net80211test.host[16].wlan[0].mac  passedUpPk:vector(packetBytes)  ETV
attr interpolationmode  none
attr source  packetSentToUpper
attr title  "packets passed to higher layer, vector(packetBytes)"
vector 373  Net80211test.host[16].udp  rcvdPk:vector(packetBytes)  ETV
attr interpolationmode  none
attr source  rcvdPk
attr title  "packets received, vector(packetBytes)"
vector 375  Net80211test.host[16].udp  droppedPkWrongPort:vector(count)  ETV
attr interpolationmode  none
attr title  "packets dropped (wrong port), vector(count)"
vector 408  Net80211test.host[17].wlan[0].mac  rcvdPkFromLL:vector(packetBytes)  ETV
attr interpolationmode  none
attr source  packetReceivedFromLower
attr title  "packets received from lower layer, vector(packetBytes)"
vector 405  Net80211test.host[17].wlan[0].mac  passedUpPk:vector(packetBytes)  ETV
attr interpolationmode  none
attr source  packetSentToUpper
attr title  "packets passed to higher layer, vector(packetBytes)"
vector 396  Net80211test.host[17].udp  rcvdPk:vector(packetBytes)  ETV
attr interpolationmode  none
attr source  rcvdPk
attr title  "packets received, vector(packetBytes)"
vector 398  Net80211test.host[17].udp  droppedPkWrongPort:vector(count)  ETV
attr interpolationmode  none
attr title  "packets dropped (wrong port), vector(count)"
vector 339  Net80211test.host[14].wlan[0].mac  rcvdPkFromLL:vector(packetBytes)  ETV
attr interpolationmode  none
attr source  packetReceivedFromLower
attr title  "packets received from lower layer, vector(packetBytes)"
vector 336  Net80211test.host[14].wlan[0].mac  passedUpPk:vector(packetBytes)  ETV
attr interpolationmode  none
attr source  packetSentToUpper
attr title  "packets passed to higher layer, vector(packetBytes)"
vector 327  Net80211test.host[14].udp  rcvdPk:vector(packetBytes)  ETV
attr interpolationmode  none
attr source  rcvdPk
attr title  "packets received, vector(packetBytes)"
vector 329  Net80211test.host[14].udp  droppedPkWrongPort:vector(count)  ETV
attr interpolationmode  none
attr title  "packets dropped (wrong port), vector(count)"
vector 40  Net80211test.host[1].wlan[0].mac  rcvdPkFromLL:vector(packetBytes)  ETV
attr interpolationmode  none
attr source  packetReceivedFromLower
attr title  "packets received from lower layer, vector(packetBytes)"
vector 37  Net80211test.host[1].wlan[0].mac  passedUpPk:vector(packetBytes)  ETV
attr interpolationmode  none
attr source  packetSentToUpper
attr title  "packets passed to higher layer, vector(packetBytes)"
vector 28  Net80211test.host[1].udp  rcvdPk:vector(packetBytes)  ETV
attr interpolationmode  none
attr source  rcvdPk
attr title  "packets received, vector(packetBytes)"
vector 30  Net80211test.host[1].udp  droppedPkWrongPort:vector(count)  ETV
attr interpolationmode  none
attr title  "packets dropped (wrong port), vector(count)"
vector 116  Net80211test.host[5].udpApp[0]  sentPk:vector(packetBytes)  ETV
attr interpolationmode  none
attr source  sentPk
attr title  "packets sent, vector(packetBytes)"
vector 119  Net80211test.host[5].udp  sentPk:vector(packetBytes)  ETV
attr interpolationmode  none
attr source  sentPk
attr title  "packets sent, vector(packetBytes)"
vector 127  Net80211test.host[5].lo0.lo  rcvdPkFromHL:vector(packetBytes)  ETV
attr interpolationmode  none
attr source  packetReceivedFromUpper
attr title  "packets received from higher layer, vector(packetBytes)"
vector 128  Net80211test.host[5].lo0.lo  passedUpPk:vector(packetBytes)  ETV
attr interpolationmode  none
attr source  packetSentToUpper
attr title  "packets passed to higher layer, vector(packetBytes)"
vector 131  Net80211test.host[5].wlan[0].mac  rcvdPkFromHL:vector(packetBytes)  ETV
attr interpolationmode  none
attr source  packetReceivedFromUpper
attr title  "packets received from higher layer, vector(packetBytes)"
vector 121  Net80211test.host[5].udp  passedUpPk:vector(count)  ETV
attr interpolationmode  none
attr title  "packets passed up, vector(count)"
vector 115  Net80211test.host[5].udpApp[0]  rcvdPk:vector(packetBytes)  ETV
attr interpolationmode  none
attr source  rcvdPk
attr title  "packets received, vector(packetBytes)"
vector 117  Net80211test.host[5].udpApp[0]  rcvdPkLifetime:vector  ETV
attr interpolationmode  none
attr source  messageAge(rcvdPk)
attr title  "received packet lifetime, vector"
attr unit  s
vector 130  Net80211test.host[5].wlan[0].mac  sentDownPk:vector(packetBytes)  ETV
attr interpolationmode  none
attr source  packetSentToLower
attr title  "packets sent to lower layer, vector(packetBytes)"
vector 135  Net80211test.host[5].wlan[0].radio  transmissionState:vector  ETV
attr interpolationmode  sample-hold
attr source  transmissionStateChanged
attr title  "Radio transmission state, vector"
vector 270  Net80211test.host[11].wlan[0].mac  rcvdPkFromLL:vector(packetBytes)  ETV
attr interpolationmode  none
attr source  packetReceivedFromLower
attr title  "packets received from lower layer, vector(packetBytes)"
vector 267  Net80211test.host[11].wlan[0].mac  passedUpPk:vector(packetBytes)  ETV
attr interpolationmode  none
attr source  packetSentToUpper
attr title  "packets passed to higher layer, vector(packetBytes)"
vector 1  Net80211test.host[0].udpApp[0]  sentPk:vector(packetBytes)  ETV
attr interpolationmode  none
attr source  sentPk
attr title  "packets sent, vector(packetBytes)"
vector 4  Net80211test.host[0].udp  sentPk:vector(packetBytes)  ETV
attr interpolationmode  none
attr source  sentPk
attr title  "packets sent, vector(packetBytes)"
vector 12  Net80211test.host[0].lo0.lo  rcvdPkFromHL:vector(packetBytes)  ETV
attr interpolationmode  none
attr source  packetReceivedFromUpper
attr title  "packets received from higher layer, vector(packetBytes)"
vector 13  Net80211test.host[0].lo0.lo  passedUpPk:vector(packetBytes)  ETV
attr interpolationmode  none
attr source  packetSentToUpper
attr title  "packets passed to higher layer, vector(packetBytes)"
vector 16  Net80211test.host[0].wlan[0].mac  rcvdPkFromHL:vector(packetBytes)  ETV
attr interpolationmode  none
attr source  packetReceivedFromUpper
attr title  "packets received from higher layer, vector(packetBytes)"
vector 6  Net80211test.host[0].udp  passedUpPk:vector(count)  ETV
attr interpolationmode  none
attr title  "packets passed up, vector(count)"
vector 0  Net80211test.host[0].udpApp[0]  rcvdPk:vector(packetBytes)  ETV
attr interpolationmode  none
attr source  rcvdPk
attr title  "packets received, vector(packetBytes)"
vector 2  Net80211test.host[0].udpApp[0]  rcvdPkLifetime:vector  ETV
attr interpolationmode  none
attr source  messageAge(rcvdPk)
attr title  "received packet lifetime, vector"
attr unit  s
vector 15  Net80211test.host[0].wlan[0].mac  sentDownPk:vector(packetBytes)  ETV
attr interpolationmode  none
attr source  packetSentToLower
attr title  "packets sent to lower layer, vector(packetBytes)"
vector 20  Net80211test.host[0].wlan[0].radio  transmissionState:vector  ETV
attr interpolationmode  sample-hold
attr source  transmissionStateChanged
attr title  "Radio transmission state, vector"
vector 277  Net80211test.host[12].udpApp[0]  sentPk:vector(packetBytes)  ETV
attr interpolationmode  none
attr source  sentPk
attr title  "packets sent, vector(packetBytes)"
vector 280  Net80211test.host[12].udp  sentPk:vector(packetBytes)  ETV
attr interpolationmode  none
attr source  sentPk
attr title  "packets sent, vector(packetBytes)"
vector 288  Net80211test.host[12].lo0.lo  rcvdPkFromHL:vector(packetBytes)  ETV
attr interpolationmode  none
attr source  packetReceivedFromUpper
attr title  "packets received from higher layer, vector(packetBytes)"
vector 289  Net80211test.host[12].lo0.lo  passedUpPk:vector(packetBytes)  ETV
attr interpolationmode  none
attr source  packetSentToUpper
attr title  "packets passed to higher layer, vector(packetBytes)"
vector 292  Net80211test.host[12].wlan[0].mac  rcvdPkFromHL:vector(packetBytes)  ETV
attr interpolationmode  none
attr source  packetReceivedFromUpper
attr title  "packets received from higher layer, vector(packetBytes)"
vector 282  Net80211test.host[12].udp  passedUpPk:vector(count)  ETV
attr interpolationmode  none
attr title  "packets passed up, vector(count)"
vector 276  Net80211test.host[12].udpApp[0]  rcvdPk:vector(packetBytes)  ETV
attr interpolationmode  none
attr source  rcvdPk
attr title  "packets received, vector(packetBytes)"
vector 278  Net80211test.host[12].udpApp[0]  rcvdPkLifetime:vector  ETV
attr interpolationmode  none
attr source  messageAge(rcvdPk)
attr title  "received packet lifetime, vector"
attr unit  s
vector 291  Net80211test.host[12].wlan[0].mac  sentDownPk:vector(packetBytes)  ETV
attr interpolationmode  none
attr source  packetSentToLower
attr title  "packets sent to lower layer, vector(packetBytes)"
vector 296  Net80211test.host[12].wlan[0].radio  transmissionState:vector  ETV
attr interpolationmode  sample-hold
attr source  transmissionStateChanged
attr title  "Radio transmission state, vector"
vector 208  Net80211test.host[9].udpApp[0]  sentPk:vector(packetBytes)  ETV
attr interpolationmode  none
attr source  sentPk
attr title  "packets sent, vector(packetBytes)"
vector 211  Net80211test.host[9].udp  sentPk:vector(packetBytes)  ETV
attr interpolationmode  none
attr source  sentPk
attr title  "packets sent, vector(packetBytes)"
vector 219  Net80211test.host[9].lo0.lo  rcvdPkFromHL:vector(packetBytes)  ETV
attr interpolationmode  none
attr source  packetReceivedFromUpper
attr title  "packets received from higher layer, vector(packetBytes)"
vector 220  Net80211test.host[9].lo0.lo  passedUpPk:vector(packetBytes)  ETV
attr interpolationmode  none
attr source  packetSentToUpper
attr title  "packets passed to higher layer, vector(packetBytes)"
vector 223  Net80211test.host[9].wlan[0].mac  rcvdPkFromHL:vector(packetBytes)  ETV
attr interpolationmode  none
attr source  packetReceivedFromUpper
attr title  "packets received from higher layer, vector(packetBytes)"
vector 213  Net80211test.host[9].udp  passedUpPk:vector(count)  ETV
attr interpolationmode  none
attr title  "packets passed up, vector(count)"
vector 207  Net80211test.host[9].udpApp[0]  rcvdPk:vector(packetBytes)  ETV
attr interpolationmode  none
attr source  rcvdPk
attr title  "packets received, vector(packetBytes)"
vector 209  Net80211test.host[9].udpApp[0]  rcvdPkLifetime:vector  ETV
attr interpolationmode  none
attr source  messageAge(rcvdPk)
attr title  "received packet lifetime, vector"
attr unit  s
vector 222  Net80211test.host[9].wlan[0].mac  sentDownPk:vector(packetBytes)  ETV
attr interpolationmode  none
attr source  packetSentToLower
attr title  "packets sent to lower layer, vector(packetBytes)"
vector 227  Net80211test.host[9].wlan[0].radio  transmissionState:vector  ETV
attr interpolationmode  sample-hold
attr source  transmissionStateChanged
attr title  "Radio transmission state, vector"
vector 93  Net80211test.host[4].udpApp[0]  sentPk:vector(packetBytes)  ETV
attr interpolationmode  none
attr source  sentPk
attr title  "packets sent, vector(packetBytes)"
vector 96  Net80211test.host[4].udp  sentPk:vector(packetBytes)  ETV
attr interpolationmode  none
attr source  sentPk
attr title  "packets sent, vector(packetBytes)"
vector 104  Net80211test.host[4].lo0.lo  rcvdPkFromHL:vector(packetBytes)  ETV
attr interpolationmode  none
attr source  packetReceivedFromUpper
attr title  "packets received from higher layer, vector(packetBytes)"
vector 105  Net80211test.host[4].lo0.lo  passedUpPk:vector(packetBytes)  ETV
attr interpolationmode  none
attr source  packetSentToUpper
attr title  "packets passed to higher layer, vector(packetBytes)"
vector 108  Net80211test.host[4].wlan[0].mac  rcvdPkFromHL:vector(packetBytes)  ETV
attr interpolationmode  none
attr source  packetReceivedFromUpper
attr title  "packets received from higher layer, vector(packetBytes)"
vector 98  Net80211test.host[4].udp  passedUpPk:vector(count)  ETV
attr interpolationmode  none
attr title  "packets passed up, vector(count)"
vector 92  Net80211test.host[4].udpApp[0]  rcvdPk:vector(packetBytes)  ETV
attr interpolationmode  none
attr source  rcvdPk
attr title  "packets received, vector(packetBytes)"
vector 94  Net80211test.host[4].udpApp[0]  rcvdPkLifetime:vector  ETV
attr interpolationmode  none
attr source  messageAge(rcvdPk)
attr title  "received packet lifetime, vector"
attr unit  s
vector 107  Net80211test.host[4].wlan[0].mac  sentDownPk:vector(packetBytes)  ETV
attr interpolationmode  none
attr source  packetSentToLower
attr title  "packets sent to lower layer, vector(packetBytes)"
vector 112  Net80211test.host[4].wlan[0].radio  transmissionState:vector  ETV
attr interpolationmode  sample-hold
attr source  transmissionStateChanged
attr title  "Radio transmission state, vector"
vector 185  Net80211test.host[8].udpApp[0]  sentPk:vector(packetBytes)  ETV
attr interpolationmode  none
attr source  sentPk
attr title  "packets sent, vector(packetBytes)"
vector 188  Net80211test.host[8].udp  sentPk:vector(packetBytes)  ETV
attr interpolationmode  none
attr source  sentPk
attr title  "packets sent, vector(packetBytes)"
vector 196  Net80211test.host[8].lo0.lo  rcvdPkFromHL:vector(packetBytes)  ETV
attr interpolationmode  none
attr source  packetReceivedFromUpper
attr title  "packets received from higher layer, vector(packetBytes)"
vector 197  Net80211test.host[8].lo0.lo  passedUpPk:vector(packetBytes)  ETV
attr interpolationmode  none
attr source  packetSentToUpper
attr title  "packets passed to higher layer, vector(packetBytes)"
vector 200  Net80211test.host[8].wlan[0].mac  rcvdPkFromHL:vector(packetBytes)  ETV
attr interpolationmode  none
attr source  packetReceivedFromUpper
attr title  "packets received from higher layer, vector(packetBytes)"
vector 190  Net80211test.host[8].udp  passedUpPk:vector(count)  ETV
attr interpolationmode  none
attr title  "packets passed up, vector(count)"
vector 184  Net80211test.host[8].udpApp[0]  rcvdPk:vector(packetBytes)  ETV
attr interpolationmode  none
attr source  rcvdPk
attr title  "packets received, vector(packetBytes)"
vector 186  Net80211test.host[8].udpApp[0]  rcvdPkLifetime:vector  ETV
attr interpolationmode  none
attr source  messageAge(rcvdPk)
attr title  "received packet lifetime, vector"
attr unit  s
vector 199  Net80211test.host[8].wlan[0].mac  sentDownPk:vector(packetBytes)  ETV
attr interpolationmode  none
attr source  packetSentToLower
attr title  "packets sent to lower layer, vector(packetBytes)"
vector 204  Net80211test.host[8].wlan[0].radio  transmissionState:vector  ETV
attr interpolationmode  sample-hold
attr source  transmissionStateChanged
attr title  "Radio transmission state, vector"
vector 139  Net80211test.host[6].udpApp[0]  sentPk:vector(packetBytes)  ETV
attr interpolationmode  none
attr source  sentPk
attr title  "packets sent, vector(packetBytes)"
vector 142  Net80211test.host[6].udp  sentPk:vector(packetBytes)  ETV
attr interpolationmode  none
attr source  sentPk
attr title  "packets sent, vector(packetBytes)"
vector 150  Net80211test.host[6].lo0.lo  rcvdPkFromHL:vector(packetBytes)  ETV
attr interpolationmode  none
attr source  packetReceivedFromUpper
attr title  "packets received from higher layer, vector(packetBytes)"
vector 151  Net80211test.host[6].lo0.lo  passedUpPk:vector(packetBytes)  ETV
attr interpolationmode  none
attr source  packetSentToUpper
attr title  "packets passed to higher layer, vector(packetBytes)"
vector 154  Net80211test.host[6].wlan[0].mac  rcvdPkFromHL:vector(packetBytes)  ETV
attr interpolationmode  none
attr source  packetReceivedFromUpper
attr title  "packets received from higher layer, vector(packetBytes)"
vector 144  Net80211test.host[6].udp  passedUpPk:vector(count)  ETV
attr interpolationmode  none
attr title  "packets passed up, vector(count)"
vector 138  Net80211test.host[6].udpApp[0]  rcvdPk:vector(packetBytes)  ETV
attr interpolationmode  none
attr source  rcvdPk
attr title  "packets received, vector(packetBytes)"
vector 140  Net80211test.host[6].udpApp[0]  rcvdPkLifetime:vector  ETV
attr interpolationmode  none
attr source  messageAge(rcvdPk)
attr title  "received packet lifetime, vector"
attr unit  s
vector 153  Net80211test.host[6].wlan[0].mac  sentDownPk:vector(packetBytes)  ETV
attr interpolationmode  none
attr source  packetSentToLower
attr title  "packets sent to lower layer, vector(packetBytes)"
vector 158  Net80211test.host[6].wlan[0].radio  transmissionState:vector  ETV
attr interpolationmode  sample-hold
attr source  transmissionStateChanged
attr title  "Radio transmission state, vector"
vector 346  Net80211test.host[15].udpApp[0]  sentPk:vector(packetBytes)  ETV
attr interpolationmode  none
attr source  sentPk
attr title  "packets sent, vector(packetBytes)"
vector 349  Net80211test.host[15].udp  sentPk:vector(packetBytes)  ETV
attr interpolationmode  none
attr source  sentPk
attr title  "packets sent, vector(packetBytes)"
vector 357  Net80211test.host[15].lo0.lo  rcvdPkFromHL:vector(packetBytes)  ETV
attr interpolationmode  none
attr source  packetReceivedFromUpper
attr title  "packets received from higher layer, vector(packetBytes)"
vector 358  Net80211test.host[15].lo0.lo  passedUpPk:vector(packetBytes)  ETV
attr interpolationmode  none
attr source  packetSentToUpper
attr title  "packets passed to higher layer, vector(packetBytes)"
vector 361  Net80211test.host[15].wlan[0].mac  rcvdPkFromHL:vector(packetBytes)  ETV
attr interpolationmode  none
attr source  packetReceivedFromUpper
attr title  "packets received from higher layer, vector(packetBytes)"
vector 351  Net80211test.host[15].udp  passedUpPk:vector(count)  ETV
attr interpolationmode  none
attr title  "packets passed up, vector(count)"
vector 345  Net80211test.host[15].udpApp[0]  rcvdPk:vector(packetBytes)  ETV
attr interpolationmode  none
attr source  rcvdPk
attr title  "packets received, vector(packetBytes)"
vector 347  Net80211test.host[15].udpApp[0]  rcvdPkLifetime:vector  ETV
attr interpolationmode  none
attr source  messageAge(rcvdPk)
attr title  "received packet lifetime, vector"
attr unit  s
vector 360  Net80211test.host[15].wlan[0].mac  sentDownPk:vector(packetBytes)  ETV
attr interpolationmode  none
attr source  packetSentToLower
attr title  "packets sent to lower layer, vector(packetBytes)"
vector 365  Net80211test.host[15].wlan[0].radio  transmissionState:vector  ETV
attr interpolationmode  sample-hold
attr source  transmissionStateChanged
attr title  "Radio transmission state, vector"
vector 323  Net80211test.host[14].udpApp[0]  sentPk:vector(packetBytes)  ETV
attr interpolationmode  none
attr source  sentPk
attr title  "packets sent, vector(packetBytes)"
vector 326  Net80211test.host[14].udp  sentPk:vector(packetBytes)  ETV
attr interpolationmode  none
attr source  sentPk
attr title  "packets sent, vector(packetBytes)"
vector 334  Net80211test.host[14].lo0.lo  rcvdPkFromHL:vector(packetBytes)  ETV
attr interpolationmode  none
attr source  packetReceivedFromUpper
attr title  "packets received from higher layer, vector(packetBytes)"
vector 335  Net80211test.host[14].lo0.lo  passedUpPk:vector(packetBytes)  ETV
attr interpolationmode  none
attr source  packetSentToUpper
attr title  "packets passed to higher layer, vector(packetBytes)"
vector 338  Net80211test.host[14].wlan[0].mac  rcvdPkFromHL:vector(packetBytes)  ETV
attr interpolationmode  none
attr source  packetReceivedFromUpper
attr title  "packets received from higher layer, vector(packetBytes)"
vector 328  Net80211test.host[14].udp  passedUpPk:vector(count)  ETV
attr interpolationmode  none
attr title  "packets passed up, vector(count)"
vector 322  Net80211test.host[14].udpApp[0]  rcvdPk:vector(packetBytes)  ETV
attr interpolationmode  none
attr source  rcvdPk
attr title  "packets received, vector(packetBytes)"
vector 324  Net80211test.host[14].udpApp[0]  rcvdPkLifetime:vector  ETV
attr interpolationmode  none
attr source  messageAge(rcvdPk)
attr title  "received packet lifetime, vector"
attr unit  s
vector 337  Net80211test.host[14].wlan[0].mac  sentDownPk:vector(packetBytes)  ETV
attr interpolationmode  none
attr source  packetSentToLower
attr title  "packets sent to lower layer, vector(packetBytes)"
vector 342  Net80211test.host[14].wlan[0].radio  transmissionState:vector  ETV
attr interpolationmode  sample-hold
attr source  transmissionStateChanged
attr title  "Radio transmission state, vector"
vector 369  Net80211test.host[16].udpApp[0]  sentPk:vector(packetBytes)  ETV
attr interpolationmode  none
attr source  sentPk
attr title  "packets sent, vector(packetBytes)"
vector 372  Net80211test.host[16].udp  sentPk:vector(packetBytes)  ETV
attr interpolationmode  none
attr source  sentPk
attr title  "packets sent, vector(packetBytes)"
vector 380  Net80211test.host[16].lo0.lo  rcvdPkFromHL:vector(packetBytes)  ETV
attr interpolationmode  none
attr source  packetReceivedFromUpper
attr title  "packets received from higher layer, vector(packetBytes)"
vector 381  Net80211test.host[16].lo0.lo  passedUpPk:vector(packetBytes)  ETV
attr interpolationmode  none
attr source  packetSentToUpper
attr title  "packets passed to higher layer, vector(packetBytes)"
vector 384  Net80211test.host[16].wlan[0].mac  rcvdPkFromHL:vector(packetBytes)  ETV
attr interpolationmode  none
attr source  packetReceivedFromUpper
attr title  "packets received from higher layer, vector(packetBytes)"
vector 374  Net80211test.host[16].udp  passedUpPk:vector(count)  ETV
attr interpolationmode  none
attr title  "packets passed up, vector(count)"
vector 368  Net80211test.host[16].udpApp[0]  rcvdPk:vector(packetBytes)  ETV
attr interpolationmode  none
attr source  rcvdPk
attr title  "packets received, vector(packetBytes)"
vector 370  Net80211test.host[16].udpApp[0]  rcvdPkLifetime:vector  ETV
attr interpolationmode  none
attr source  messageAge(rcvdPk)
attr title  "received packet lifetime, vector"
attr unit  s
vector 383  Net80211test.host[16].wlan[0].mac  sentDownPk:vector(packetBytes)  ETV
attr interpolationmode  none
attr source  packetSentToLower
attr title  "packets sent to lower layer, vector(packetBytes)"
vector 388  Net80211test.host[16].wlan[0].radio  transmissionState:vector  ETV
attr interpolationmode  sample-hold
attr source  transmissionStateChanged
attr title  "Radio transmission state, vector"
vector 231  Net80211test.host[10].udpApp[0]  sentPk:vector(packetBytes)  ETV
attr interpolationmode  none
attr source  sentPk
attr title  "packets sent, vector(packetBytes)"
vector 234  Net80211test.host[10].udp  sentPk:vector(packetBytes)  ETV
attr interpolationmode  none
attr source  sentPk
attr title  "packets sent, vector(packetBytes)"
vector 242  Net80211test.host[10].lo0.lo  rcvdPkFromHL:vector(packetBytes)  ETV
attr interpolationmode  none
attr source  packetReceivedFromUpper
attr title  "packets received from higher layer, vector(packetBytes)"
vector 243  Net80211test.host[10].lo0.lo  passedUpPk:vector(packetBytes)  ETV
attr interpolationmode  none
attr source  packetSentToUpper
attr title  "packets passed to higher layer, vector(packetBytes)"
vector 246  Net80211test.host[10].wlan[0].mac  rcvdPkFromHL:vector(packetBytes)  ETV
attr interpolationmode  none
attr source  packetReceivedFromUpper
attr title  "packets received from higher layer, vector(packetBytes)"
vector 236  Net80211test.host[10].udp  passedUpPk:vector(count)  ETV
attr interpolationmode  none
attr title  "packets passed up, vector(count)"
vector 230  Net80211test.host[10].udpApp[0]  rcvdPk:vector(packetBytes)  ETV
attr interpolationmode  none
attr source  rcvdPk
attr title  "packets received, vector(packetBytes)"
vector 232  Net80211test.host[10].udpApp[0]  rcvdPkLifetime:vector  ETV
attr interpolationmode  none
attr source  messageAge(rcvdPk)
attr title  "received packet lifetime, vector"
attr unit  s
vector 245  Net80211test.host[10].wlan[0].mac  sentDownPk:vector(packetBytes)  ETV
attr interpolationmode  none
attr source  packetSentToLower
attr title  "packets sent to lower layer, vector(packetBytes)"
vector 250  Net80211test.host[10].wlan[0].radio  transmissionState:vector  ETV
attr interpolationmode  sample-hold
attr source  transmissionStateChanged
attr title  "Radio transmission state, vector"
vector 70  Net80211test.host[3].udpApp[0]  sentPk:vector(packetBytes)  ETV
attr interpolationmode  none
attr source  sentPk
attr title  "packets sent, vector(packetBytes)"
vector 73  Net80211test.host[3].udp  sentPk:vector(packetBytes)  ETV
attr interpolationmode  none
attr source  sentPk
attr title  "packets sent, vector(packetBytes)"
vector 81  Net80211test.host[3].lo0.lo  rcvdPkFromHL:vector(packetBytes)  ETV
attr interpolationmode  none
attr source  packetReceivedFromUpper
attr title  "packets received from higher layer, vector(packetBytes)"
vector 82  Net80211test.host[3].lo0.lo  passedUpPk:vector(packetBytes)  ETV
attr interpolationmode  none
attr source  packetSentToUpper
attr title  "packets passed to higher layer, vector(packetBytes)"
vector 85  Net80211test.host[3].wlan[0].mac  rcvdPkFromHL:vector(packetBytes)  ETV
attr interpolationmode  none
attr source  packetReceivedFromUpper
attr title  "packets received from higher layer, vector(packetBytes)"
vector 75  Net80211test.host[3].udp  passedUpPk:vector(count)  ETV
attr interpolationmode  none
attr title  "packets passed up, vector(count)"
vector 69  Net80211test.host[3].udpApp[0]  rcvdPk:vector(packetBytes)  ETV
attr interpolationmode  none
attr source  rcvdPk
attr title  "packets received, vector(packetBytes)"
vector 71  Net80211test.host[3].udpApp[0]  rcvdPkLifetime:vector  ETV
attr interpolationmode  none
attr source  messageAge(rcvdPk)
attr title  "received packet lifetime, vector"
attr unit  s
vector 84  Net80211test.host[3].wlan[0].mac  sentDownPk:vector(packetBytes)  ETV
attr interpolationmode  none
attr source  packetSentToLower
attr title  "packets sent to lower layer, vector(packetBytes)"
vector 89  Net80211test.host[3].wlan[0].radio  transmissionState:vector  ETV
attr interpolationmode  sample-hold
attr source  transmissionStateChanged
attr title  "Radio transmission state, vector"
vector 47  Net80211test.host[2].udpApp[0]  sentPk:vector(packetBytes)  ETV
attr interpolationmode  none
attr source  sentPk
attr title  "packets sent, vector(packetBytes)"
vector 50  Net80211test.host[2].udp  sentPk:vector(packetBytes)  ETV
attr interpolationmode  none
attr source  sentPk
attr title  "packets sent, vector(packetBytes)"
vector 58  Net80211test.host[2].lo0.lo  rcvdPkFromHL:vector(packetBytes)  ETV
attr interpolationmode  none
attr source  packetReceivedFromUpper
attr title  "packets received from higher layer, vector(packetBytes)"
vector 59  Net80211test.host[2].lo0.lo  passedUpPk:vector(packetBytes)  ETV
attr interpolationmode  none
attr source  packetSentToUpper
attr title  "packets passed to higher layer, vector(packetBytes)"
vector 62  Net80211test.host[2].wlan[0].mac  rcvdPkFromHL:vector(packetBytes)  ETV
attr interpolationmode  none
attr source  packetReceivedFromUpper
attr title  "packets received from higher layer, vector(packetBytes)"
vector 52  Net80211test.host[2].udp  passedUpPk:vector(count)  ETV
attr interpolationmode  none
attr title  "packets passed up, vector(count)"
vector 46  Net80211test.host[2].udpApp[0]  rcvdPk:vector(packetBytes)  ETV
attr interpolationmode  none
attr source  rcvdPk
attr title  "packets received, vector(packetBytes)"
vector 48  Net80211test.host[2].udpApp[0]  rcvdPkLifetime:vector  ETV
attr interpolationmode  none
attr source  messageAge(rcvdPk)
attr title  "received packet lifetime, vector"
attr unit  s
vector 61  Net80211test.host[2].wlan[0].mac  sentDownPk:vector(packetBytes)  ETV
attr interpolationmode  none
attr source  packetSentToLower
attr title  "packets sent to lower layer, vector(packetBytes)"
vector 66  Net80211test.host[2].wlan[0].radio  transmissionState:vector  ETV
attr interpolationmode  sample-hold
attr source  transmissionStateChanged
attr title  "Radio transmission state, vector"
vector 24  Net80211test.host[1].udpApp[0]  sentPk:vector(packetBytes)  ETV
attr interpolationmode  none
attr source  sentPk
attr title  "packets sent, vector(packetBytes)"
vector 27  Net80211test.host[1].udp  sentPk:vector(packetBytes)  ETV
attr interpolationmode  none
attr source  sentPk
attr title  "packets sent, vector(packetBytes)"
vector 35  Net80211test.host[1].lo0.lo  rcvdPkFromHL:vector(packetBytes)  ETV
attr interpolationmode  none
attr source  packetReceivedFromUpper
attr title  "packets received from higher layer, vector(packetBytes)"
vector 36  Net80211test.host[1].lo0.lo  passedUpPk:vector(packetBytes)  ETV
attr interpolationmode  none
attr source  packetSentToUpper
attr title  "packets passed to higher layer, vector(packetBytes)"
vector 39  Net80211test.host[1].wlan[0].mac  rcvdPkFromHL:vector(packetBytes)  ETV
attr interpolationmode  none
attr source  packetReceivedFromUpper
attr title  "packets received from higher layer, vector(packetBytes)"
vector 29  Net80211test.host[1].udp  passedUpPk:vector(count)  ETV
attr interpolationmode  none
attr title  "packets passed up, vector(count)"
vector 23  Net80211test.host[1].udpApp[0]  rcvdPk:vector(packetBytes)  ETV
attr interpolationmode  none
attr source  rcvdPk
attr title  "packets received, vector(packetBytes)"
vector 25  Net80211test.host[1].udpApp[0]  rcvdPkLifetime:vector  ETV
attr interpolationmode  none
attr source  messageAge(rcvdPk)
attr title  "received packet lifetime, vector"
attr unit  s
vector 38  Net80211test.host[1].wlan[0].mac  sentDownPk:vector(packetBytes)  ETV
attr interpolationmode  none
attr source  packetSentToLower
attr title  "packets sent to lower layer, vector(packetBytes)"
vector 43  Net80211test.host[1].wlan[0].radio  transmissionState:vector  ETV
attr interpolationmode  sample-hold
attr source  transmissionStateChanged
attr title  "Radio transmission state, vector"
vector 300  Net80211test.host[13].udpApp[0]  sentPk:vector(packetBytes)  ETV
attr interpolationmode  none
attr source  sentPk
attr title  "packets sent, vector(packetBytes)"
vector 303  Net80211test.host[13].udp  sentPk:vector(packetBytes)  ETV
attr interpolationmode  none
attr source  sentPk
attr title  "packets sent, vector(packetBytes)"
vector 311  Net80211test.host[13].lo0.lo  rcvdPkFromHL:vector(packetBytes)  ETV
attr interpolationmode  none
attr source  packetReceivedFromUpper
attr title  "packets received from higher layer, vector(packetBytes)"
vector 312  Net80211test.host[13].lo0.lo  passedUpPk:vector(packetBytes)  ETV
attr interpolationmode  none
attr source  packetSentToUpper
attr title  "packets passed to higher layer, vector(packetBytes)"
vector 315  Net80211test.host[13].wlan[0].mac  rcvdPkFromHL:vector(packetBytes)  ETV
attr interpolationmode  none
attr source  packetReceivedFromUpper
attr title  "packets received from higher layer, vector(packetBytes)"
vector 305  Net80211test.host[13].udp  passedUpPk:vector(count)  ETV
attr interpolationmode  none
attr title  "packets passed up, vector(count)"
vector 299  Net80211test.host[13].udpApp[0]  rcvdPk:vector(packetBytes)  ETV
attr interpolationmode  none
attr source  rcvdPk
attr title  "packets received, vector(packetBytes)"
vector 301  Net80211test.host[13].udpApp[0]  rcvdPkLifetime:vector  ETV
attr interpolationmode  none
attr source  messageAge(rcvdPk)
attr title  "received packet lifetime, vector"
attr unit  s
vector 314  Net80211test.host[13].wlan[0].mac  sentDownPk:vector(packetBytes)  ETV
attr interpolationmode  none
attr source  packetSentToLower
attr title  "packets sent to lower layer, vector(packetBytes)"
vector 319  Net80211test.host[13].wlan[0].radio  transmissionState:vector  ETV
attr interpolationmode  sample-hold
attr source  transmissionStateChanged
attr title  "Radio transmission state, vector"
vector 392  Net80211test.host[17].udpApp[0]  sentPk:vector(packetBytes)  ETV
attr interpolationmode  none
attr source  sentPk
attr title  "packets sent, vector(packetBytes)"
vector 395  Net80211test.host[17].udp  sentPk:vector(packetBytes)  ETV
attr interpolationmode  none
attr source  sentPk
attr title  "packets sent, vector(packetBytes)"
vector 403  Net80211test.host[17].lo0.lo  rcvdPkFromHL:vector(packetBytes)  ETV
attr interpolationmode  none
attr source  packetReceivedFromUpper
attr title  "packets received from higher layer, vector(packetBytes)"
vector 404  Net80211test.host[17].lo0.lo  passedUpPk:vector(packetBytes)  ETV
attr interpolationmode  none
attr source  packetSentToUpper
attr title  "packets passed to higher layer, vector(packetBytes)"
vector 407  Net80211test.host[17].wlan[0].mac  rcvdPkFromHL:vector(packetBytes)  ETV
attr interpolationmode  none
attr source  packetReceivedFromUpper
attr title  "packets received from higher layer, vector(packetBytes)"
vector 397  Net80211test.host[17].udp  passedUpPk:vector(count)  ETV
attr interpolationmode  none
attr title  "packets passed up, vector(count)"
vector 391  Net80211test.host[17].udpApp[0]  rcvdPk:vector(packetBytes)  ETV
attr interpolationmode  none
attr source  rcvdPk
attr title  "packets received, vector(packetBytes)"
vector 393  Net80211test.host[17].udpApp[0]  rcvdPkLifetime:vector  ETV
attr interpolationmode  none
attr source  messageAge(rcvdPk)
attr title  "received packet lifetime, vector"
attr unit  s
vector 406  Net80211test.host[17].wlan[0].mac  sentDownPk:vector(packetBytes)  ETV
attr interpolationmode  none
attr source  packetSentToLower
attr title  "packets sent to lower layer, vector(packetBytes)"
vector 411  Net80211test.host[17].wlan[0].radio  transmissionState:vector  ETV
attr interpolationmode  sample-hold
attr source  transmissionStateChanged
attr title  "Radio transmission state, vector"
vector 167  Net80211test.host[7].udp  passedUpPk:vector(count)  ETV
attr interpolationmode  none
attr title  "packets passed up, vector(count)"
vector 161  Net80211test.host[7].udpApp[0]  rcvdPk:vector(packetBytes)  ETV
attr interpolationmode  none
attr source  rcvdPk
attr title  "packets received, vector(packetBytes)"
vector 163  Net80211test.host[7].udpApp[0]  rcvdPkLifetime:vector  ETV
attr interpolationmode  none
attr source  messageAge(rcvdPk)
attr title  "received packet lifetime, vector"
attr unit  s
vector 162  Net80211test.host[7].udpApp[0]  sentPk:vector(packetBytes)  ETV
attr interpolationmode  none
attr source  sentPk
attr title  "packets sent, vector(packetBytes)"
vector 165  Net80211test.host[7].udp  sentPk:vector(packetBytes)  ETV
attr interpolationmode  none
attr source  sentPk
attr title  "packets sent, vector(packetBytes)"
vector 173  Net80211test.host[7].lo0.lo  rcvdPkFromHL:vector(packetBytes)  ETV
attr interpolationmode  none
attr source  packetReceivedFromUpper
attr title  "packets received from higher layer, vector(packetBytes)"
vector 174  Net80211test.host[7].lo0.lo  passedUpPk:vector(packetBytes)  ETV
attr interpolationmode  none
attr source  packetSentToUpper
attr title  "packets passed to higher layer, vector(packetBytes)"
vector 177  Net80211test.host[7].wlan[0].mac  rcvdPkFromHL:vector(packetBytes)  ETV
attr interpolationmode  none
attr source  packetReceivedFromUpper
attr title  "packets received from higher layer, vector(packetBytes)"
vector 176  Net80211test.host[7].wlan[0].mac  sentDownPk:vector(packetBytes)  ETV
attr interpolationmode  none
attr source  packetSentToLower
attr title  "packets sent to lower layer, vector(packetBytes)"
vector 181  Net80211test.host[7].wlan[0].radio  transmissionState:vector  ETV
attr interpolationmode  sample-hold
attr source  transmissionStateChanged
attr title  "Radio transmission state, vector"
0	62230 40192 1351 205176 3.947009828233 48.447009828233 1422 512 512 728064 372768768
1	102422 2545 1340 205167 3.947009828233 48.447009828233 90 512 512 46080 23592960
2	104967 54525 1351 205176 3.947009828233 48.447009828233 1422 0 0.000320657819 0.297015813833 6.6265768776772e-05
4	159492 2545 1343 205168 3.947009828233 48.447009828233 90 520 520 46800 24336000
5	162037 40244 1108 205174 3.782993007549 48.447009828233 1424 520 520 740480 385049600
6	202281 40507 1349 205174 3.947009828233 48.447009828233 1422 1 1422 1011753 959479095
7	242788 48 1108 1308 3.782993007549 3.923065228823 2 1 2 3 5
12	242836 2635 1345 205170 3.947009828233 48.447009828233 90 540 540 48600 26244000
13	245471 2635 1345 205170 3.947009828233 48.447009828233 90 540 540 48600 26244000
14	248106 39033 1105 205113 3.782993007549 48.423064719336 1334 576 576 768384 442589184
15	287139 2635 1352 205177 3.947009828233 48.447009828233 90 576 576 51840 29859840
16	289774 2635 1348 205173 3.947009828233 48.447009828233 90 576 576 51840 29859840
17	292409 39033 1105 205113 3.782993007549 48.423064719336 1334 576 576 768384 442589184
18	331442 4928 0 205198 0 48.447231828233 182 0 3 452 1174
19	336370 77649 0 205198 0 48.447231828233 2849 0 3 5427 13431
20	414019 9820 1353 205198 3.947009828233 48.447231828233 360 0 2 360 540
21	423839 9 0 0 0 0 1 0 0 0 0
22	423848 170046 0 205198 0 48.447231828233 6240 0 3 1440 3960
23	593894 40546 6859 205300 5.884780782412 48.447232910629 1383 512 512 708096 362545152
24	634440 2527 6848 204861 5.884780782412 48.384780782412 86 512 512 44032 22544384
25	636967 54488 6859 205300 5.884780782412 48.447232910629 1383 0 0.000320622795 0.289375813664 6.4599054870185e-05
27	691455 2527 6851 204862 5.884780782412 48.384780782412 86 520 520 44720 23254400
28	693982 41647 1163 205299 3.78299362551 48.447232910629 1424 520 520 740480 385049600
29	735629 40822 6857 205299 5.884780782412 48.447232910629 1383 1 1383 957036 882706204
30	776451 1051 1163 6822 3.78299362551 5.863500988827 41 1 41 861 23821
35	777502 2527 6853 204864 5.884780782412 48.384780782412 86 540 540 46440 25077600
36	780029 2527 6853 204864 5.884780782412 48.384780782412 86 540 540 46440 25077600
37	782556 39120 1160 205296 3.78299362551 48.447232910629 1338 576 576 770688 443916288
38	821676 2527 6860 204871 5.884780782412 48.384780782412 86 576 576 49536 28532736
39	824203 2527 6856 204867 5.884780782412 48.384780782412 86 576 576 49536 28532736
40	826730 39120 1160 205296 3.78299362551 48.447232910629 1338 576 576 770688 443916288
41	865850 4728 0 204892 0 48.385002782412 174 0 3 432 1122
42	870578 77607 0 205295 0 48.447232910629 2849 0 3 5439 13467
43	948185 9420 6861 204892 5.884780782412 48.385002782412 344 0 2 344 516
44	957605 9 0 0 0 0 1 0 0 0 0
45	957614 169362 0 205295 0 48.447232910629 6216 0 3 1376 3784
46	1126976 40619 6595 205210 5.852570675034 48.447232114515 1385 512 512 709120 363069440
47	1167595 2527 6584 204591 5.852570675034 48.352570675034 86 512 512 44032 22544384
48	1170122 54598 6595 205210 5.852570675034 48.447232114515 1385 0 0.000320926356 0.289903515545 6.4734819562246e-05
50	1224720 2527 6587 204592 5.852570675034 48.352570675034 86 520 520 44720 23254400
51	1227247 41667 1118 205209 3.782993081271 48.447232114515 1424 520 520 740480 385049600
52	1268914 40897 6593 205209 5.852570675034 48.447232114515 1385 1 1385 959805 886539885
53	1309811 1000 1118 6516 3.782993081271 5.799855569161 39 1 39 780 20540
58	1310811 2527 6589 204594 5.852570675034 48.352570675034 86 540 540 46440 25077600
59	1313338 2527 6589 204594 5.852570675034 48.352570675034 86 540 540 46440 25077600
60	1315865 39140 1115 205206 3.782993081271 48.447232114515 1338 576 576 770688 443916288
61	1355005 2527 6596 204601 5.852570675034 48.352570675034 86 576 576 49536 28532736
62	1357532 2527 6592 204597 5.852570675034 48.352570675034 86 576 576 49536 28532736
63	1360059 39140 1115 205206 3.782993081271 48.447232114515 1338 576 576 770688 443916288
64	1399199 4728 0 204622 0 48.352792675034 174 0 3 432 1122
65	1403927 77646 0 205205 0 48.447232114515 2849 0 3 5439 13467
66	1481573 9420 6597 204622 5.852570675034 48.352792675034 344 0 2 344 516
67	1490993 9 0 0 0 0 1 0 0 0 0
68	1491002 169440 0 205205 0 48.447232114515 6216 0 3 1376 3784
69	1660442 32496 6036 205246 5.719886709309 48.44723240379 1114 512 512 570368 292028416
70	1692938 2017 6025 203897 5.719886709309 48.219886709309 69 512 512 35328 18087936
71	1694955 43745 6036 205246 5.719886709309 48.44723240379 1114 0 0.000320500627 0.232812617472 5.1884307569881e-05
73	1738700 2017 6028 203898 5.719886709309 48.219886709309 69 520 520 35880 18657600
74	1740717 41660 1133 205245 3.782993180536 48.44723240379 1424 520 520 740480 385049600
75	1782377 41002 6034 205245 5.719886709309 48.44723240379 1389 1 1389 965355 894240515
76	1823379 896 1133 6004 3.782993180536 5.674693878316 35 1 35 630 14910
81	1824275 2017 6030 203900 5.719886709309 48.219886709309 69 540 540 37260 20120400
82	1826292 2017 6030 203900 5.719886709309 48.219886709309 69 540 540 37260 20120400
83	1828309 39643 1130 205242 3.782993180536 48.44723240379 1355 576 576 780480 449556480
84	1867952 2017 6037 203907 5.719886709309 48.219886709309 69 576 576 39744 22892544
85	1869969 2017 6033 203903 5.719886709309 48.219886709309 69 576 576 39744 22892544
86	1871986 39643 1130 205242 3.782993180536 48.44723240379 1355 576 576 780480 449556480
87	1911629 3776 0 203928 0 48.220108709309 140 0 3 347 901
88	1915405 77633 0 205241 0 48.44723240379 2849 0 3 5490 13620
89	1993038 7516 6038 203928 5.719886709309 48.220108709309 276 0 2 276 414
90	2000554 9 0 0 0 0 1 0 0 0 0
91	2000563 166558 0 205241 0 48.44723240379 6114 0 3 1104 3036
92	2167121 37507 1810 205204 4.251004747152 48.447232077596 1275 512 512 652800 334233600
93	2204628 2329 1799 204166 4.251004747152 48.251004747152 79 512 512 40448 20709376
94	2206957 50400 1810 205204 4.251004747152 48.447232077596 1275 0 0.0003204438 0.266535382723 5.9430953114739e-05
96	2257357 2329 1802 204167 4.251004747152 48.251004747152 79 520 520 41080 21361600
97	2259686 41639 1103 205203 3.782993005177 48.447232077596 1424 520 520 740480 385049600
98	2301325 41816 1808 205203 4.251004747152 48.447232077596 1419 1 1419 1007490 953421370
99	2343141 125 1103 1664 3.782993005177 4.026425233884 5 1 5 15 55
104	2343266 2408 1804 204169 4.251004747152 48.251004747152 79 540 540 42660 23036400
105	2345674 2408 1804 204169 4.251004747152 48.251004747152 79 540 540 42660 23036400
106	2348082 40655 1100 205200 3.782993005177 48.447232077596 1345 576 576 774720 446238720
107	2388737 2408 1811 204176 4.251004747152 48.251004747152 79 576 576 45504 26210304
108	2391145 2408 1807 204172 4.251004747152 48.251004747152 79 576 576 45504 26210304
109	2393553 40655 1100 205200 3.782993005177 48.447232077596 1345 576 576 774720 446238720
110	2434208 4520 0 204197 0 48.251226747152 160 0 3 397 1031
111	2438728 80440 0 205199 0 48.447232077596 2849 0 3 5460 13530
112	2519168 9000 1812 204197 4.251004747152 48.251226747152 316 0 2 316 474
113	2528168 10 0 0 0 0 1 0 0 0 0
114	2528178 174400 0 205199 0 48.447232077596 6174 0 3 1264 3476
115	2702578 36883 1230 205228 3.9228422814 48.447232265937 1228 512 512 628736 321912832
116	2739461 2197 1219 205032 3.9228422814 48.4228422814 78 512 512 39936 20447232
117	2741658 49271 1230 205228 3.9228422814 48.447232265937 1228 0 0.000320554843 0.256427995764 5.7214182804064e-05
119	2790929 2197 1222 205033 3.9228422814 48.4228422814 78 520 520 40560 21091200
120	2793126 42931 1093 205227 3.78299289408 48.447232265937 1424 520 520 740480 385049600
121	2836057 43220 1228 205227 3.9228422814 48.447232265937 1423 1 1423 1013176 961504024
122	2879277 25 1093 1093 3.78299289408 3.78299289408 1 1 1 1 1
127	2879302 2197 1224 205035 3.9228422814 48.4228422814 78 540 540 42120 22744800
128	2881499 2197 1224 205035 3.9228422814 48.4228422814 78 540 540 42120 22744800
129	2883696 40734 1090 205224 3.78299289408 48.447232265937 1346 576 576 775296 446570496
130	2924430 2197 1231 205042 3.9228422814 48.4228422814 78 576 576 44928 25878528
131	2926627 2197 1227 205038 3.9228422814 48.4228422814 78 576 576 44928 25878528
132	2928824 40734 1090 205224 3.78299289408 48.447232265937 1346 576 576 775296 446570496
133	2969558 4102 0 205063 0 48.4230642814 158 0 3 392 1018
134	2973660 80176 0 205223 0 48.447232265937 2849 0 3 5463 13539
135	3053836 8164 1232 205063 3.9228422814 48.4230642814 312 0 2 312 468
136	3062000 10 0 0 0 0 1 0 0 0 0
137	3062010 172618 0 205223 0 48.447232265937 6168 0 3 1248 3432
138	3234628 33553 2787 205270 4.684311597327 48.447232659125 1099 512 512 562688 288096256
139	3268181 2080 2776 203725 4.684311597327 48.184311597327 68 512 512 34816 17825792
140	3270261 44659 2787 205270 4.684311597327 48.447232659125 1099 0 0.000320407762 0.229914653643 5.1303556375971e-05
142	3314920 2080 2779 203726 4.684311597327 48.184311597327 68 520 520 35360 18387200
143	3317000 43071 1088 205269 3.782992834057 48.447232659125 1424 520 520 740480 385049600
144	3360071 43040 2785 205269 4.684311597327 48.447232659125 1412 1 1412 997578 939385950
145	3403111 315 1088 2742 3.782992834057 4.634920919614 12 1 12 78 650
150	3403426 2080 2781 203728 4.684311597327 48.184311597327 68 540 540 36720 19828800
151	3405506 2080 2781 203728 4.684311597327 48.184311597327 68 540 540 36720 19828800
152	3407586 40991 1085 205266 3.782992834057 48.447232659125 1356 576 576 781056 449888256
153	3448577 2080 2788 203735 4.684311597327 48.184311597327 68 576 576 39168 22560768
154	3450657 2080 2784 203731 4.684311597327 48.184311597327 68 576 576 39168 22560768
155	3452737 40991 1085 205266 3.782992834057 48.447232659125 1356 576 576 781056 449888256
156	3493728 3908 0 203756 0 48.184533597327 138 0 3 342 888
157	3497636 80456 0 205265 0 48.447232659125 2849 0 3 5493 13629
158	3578092 7776 2789 203756 4.684311597327 48.184533597327 272 0 2 272 408
159	3585868 10 0 0 0 0 1 0 0 0 0
160	3585878 172596 0 205265 0 48.447232659125 6108 0 3 1088 2992
161	3758474 37820 27646 205311 10.782992613265 48.476328828066 1240 512 512 634880 325058560
162	3796294 2324 28592 205302 10.976328828066 48.476328828066 76 512 512 38912 19922944
163	3798618 50344 27646 205311 10.782992613265 48.476328828066 1240 0 0.000320475803 0.259519754468 5.7893440849702e-05
165	3848962 2324 28593 205303 10.976328828066 48.476328828066 76 520 520 39520 20550400
166	3851286 43125 1083 205309 3.78299275087 48.476328828066 1425 520 520 741000 385320000
167	3894411 41325 11481 205309 6.987562669077 48.476328828066 1352 1 1352 914628 824689580
168	3935736 1963 1083 11338 3.78299275087 6.947232291826 73 1 73 2701 132349
173	3937699 2324 28595 205305 10.976328828066 48.476328828066 76 540 540 41040 22161600
174	3940023 2324 28595 205305 10.976328828066 48.476328828066 76 540 540 41040 22161600
175	3942347 40801 1080 205284 3.78299275087 48.447232743546 1349 576 576 777024 447565824
176	3983148 2324 28602 205312 10.976328828066 48.476328828066 76 576 576 43776 25214976
177	3985472 2324 28598 205308 10.976328828066 48.476328828066 76 576 576 43776 25214976
178	3987796 40801 1080 205284 3.78299275087 48.447232743546 1349 576 576 777024 447565824
179	4028597 4306 0 202892 0 47.976550828066 152 0 3 377 979
180	4032903 80502 0 205283 0 48.447232743546 2849 0 3 5472 13566
181	4113405 8572 28603 202892 10.976328828066 47.976550828066 300 0 2 300 450
182	4121977 10 0 0 0 0 1 0 0 0 0
183	4121987 173998 0 205310 0 48.476328828066 6154 0 3 1207 3317
184	4295985 42768 2659 205276 4.634698061278 48.447232698143 1413 512 512 723456 370409472
185	4338753 2668 2648 203321 4.634698061278 48.134698061278 88 512 512 45056 23068672
186	4341421 57027 2659 205276 4.634698061278 48.447232698143 1413 0 0.000320781592 0.295609406124 6.598662971653e-05
188	4398448 2668 2651 203322 4.634698061278 48.134698061278 88 520 520 45760 23795200
189	4401116 43075 1098 205275 3.782992945689 48.447232698143 1424 520 520 740480 385049600
190	4444191 43074 2657 205275 4.634698061278 48.447232698143 1413 1 1413 998991 941382519
191	4487265 287 1098 2535 3.782992945689 4.526425292297 11 1 11 66 506
196	4487552 2668 2653 203324 4.634698061278 48.134698061278 88 540 540 47520 25660800
197	4490220 2668 2653 203324 4.634698061278 48.134698061278 88 540 540 47520 25660800
198	4492888 40407 1095 205272 3.782992945689 48.447232698143 1336 576 576 769536 443252736
199	4533295 2668 2660 203331 4.634698061278 48.134698061278 88 576 576 50688 29196288
200	4535963 2668 2656 203327 4.634698061278 48.134698061278 88 576 576 50688 29196288
201	4538631 40407 1095 205272 3.782992945689 48.447232698143 1336 576 576 769536 443252736
202	4579038 5004 0 203352 0 48.134920061278 178 0 3 442 1148
203	4584042 80464 0 205271 0 48.447232698143 2849 0 3 5433 13449
204	4664506 9968 2661 203352 4.634698061278 48.134920061278 352 0 2 352 528
205	4674474 10 0 0 0 0 1 0 0 0 0
206	4674484 175900 0 205271 0 48.447232698143 6228 0 3 1408 3872
207	4850384 38515 1632 205282 4.026202745104 48.447232742222 1271 512 512 650752 333185024
208	4888899 2425 1621 203168 4.026202745104 48.026202745104 80 512 512 40960 20971520
209	4891324 51320 1632 205282 4.026202745104 48.447232742222 1271 0 0.00032027041 0.265599543904 5.9265786595033e-05
211	4942644 2425 1624 203169 4.026202745104 48.026202745104 80 520 520 41600 21632000
212	4945069 43085 1143 205281 3.782993259642 48.447232742222 1424 520 520 740480 385049600
213	4988154 43286 1630 205281 4.026202745104 48.447232742222 1420 1 1420 1008910 955437770
214	5031440 104 1143 1552 3.782993259642 3.987563314626 4 1 4 10 30
219	5031544 2425 1626 203171 4.026202745104 48.026202745104 80 540 540 43200 23328000
220	5033969 2425 1626 203171 4.026202745104 48.026202745104 80 540 540 43200 23328000
221	5036394 40660 1140 205278 3.782993259642 48.447232742222 1344 576 576 774144 445906944
222	5077054 2425 1633 203178 4.026202745104 48.026202745104 80 576 576 46080 26542080
223	5079479 2425 1629 203174 4.026202745104 48.026202745104 80 576 576 46080 26542080
224	5081904 40660 1140 205278 3.782993259642 48.447232742222 1344 576 576 774144 445906944
225	5122564 4550 0 203199 0 48.026424745104 162 0 3 402 1044
226	5127114 80484 0 205277 0 48.447232742222 2849 0 3 5457 13521
227	5207598 9060 1634 203199 4.026202745104 48.026424745104 320 0 2 320 480
228	5216658 10 0 0 0 0 1 0 0 0 0
229	5216668 174578 0 205277 0 48.447232742222 6180 0 3 1280 3520
230	5391246 32765 5886 205234 5.674470479187 48.447232298836 1077 512 512 551424 282329088
231	5424011 2012 5875 203590 5.674470479187 48.174470479187 66 512 512 33792 17301504
232	5426023 43642 5886 205234 5.674470479187 48.447232298836 1077 0 0.000223399129 0.224947796171 5.0050993238278e-05
234	5469665 2012 5878 203591 5.674470479187 48.174470479187 66 520 520 34320 17846400
235	5471677 43069 1113 205233 3.78299305485 48.447232298836 1424 520 520 740480 385049600
236	5514746 42404 5884 205233 5.674470479187 48.447232298836 1390 1 1390 966745 896172615
237	5557150 905 1113 5846 3.78299305485 5.634921074562 34 1 34 595 13685
242	5558055 2012 5880 203593 5.674470479187 48.174470479187 66 540 540 35640 19245600
243	5560067 2012 5880 203593 5.674470479187 48.174470479187 66 540 540 35640 19245600
244	5562079 41057 1110 205230 3.78299305485 48.447232298836 1358 576 576 782208 450551808
245	5603136 2010 5887 203600 5.674470479187 48.174470479187 66 576 576 38016 21897216
246	5605146 2012 5883 203596 5.674470479187 48.174470479187 66 576 576 38016 21897216
247	5607158 41057 1110 205230 3.78299305485 48.447232298836 1358 576 576 782208 450551808
248	5648215 3776 0 203621 0 48.174692479187 134 0 3 332 862
249	5651991 80448 0 205229 0 48.447232298836 2849 0 3 5499 13647
250	5732439 7512 5888 203621 5.674470479187 48.174692479187 264 0 2 264 396
251	5739951 10 0 0 0 0 1 0 0 0 0
252	5739961 172188 0 205229 0 48.447232298836 6096 0 3 1056 2904
253	5912149 35063 1056 197350 3.782770416983 46.799854885748 1165 512 512 596480 305397760
254	5947212 2260 1045 197130 3.782770416983 46.782770416983 75 512 512 38400 19660800
255	5949472 46771 1056 197350 3.782770416983 46.799854885748 1165 0 0.000320629893 0.243001909174 5.4206596606503e-05
257	5996243 2260 1048 197131 3.782770416983 46.782770416983 75 520 520 39000 20280000
258	5998503 43062 1054 205239 3.782770416983 48.447232397579 1424 520 520 740480 385049600
259	6041565 43379 1054 205239 3.782770416983 48.447232397579 1424 1 1424 1014600 963531800
265	6084944 2260 1050 197133 3.782770416983 46.782770416983 75 540 540 40500 21870000
266	6087204 2260 1050 197133 3.782770416983 46.782770416983 75 540 540 40500 21870000
267	6089464 40802 1254 205236 3.923064758497 48.447232397579 1349 576 576 777024 447565824
268	6130266 2260 1057 197140 3.782770416983 46.782770416983 75 576 576 43200 24883200
269	6132526 2260 1053 197136 3.782770416983 46.782770416983 75 576 576 43200 24883200
270	6134786 40802 1254 205236 3.923064758497 48.447232397579 1349 576 576 777024 447565824
271	6175588 4240 0 197161 0 46.782992416983 152 0 3 377 979
272	6179828 80438 0 205235 0 48.447232397579 2849 0 3 5472 13566
273	6260266 8440 1058 197161 3.782770416983 46.782992416983 300 0 2 300 450
274	6268706 10 0 0 0 0 1 0 0 0 0
275	6268716 173556 0 205235 0 48.447232397579 6150 0 3 1200 3300
276	6442272 42982 1473 205222 3.987340085104 48.447232145094 1421 512 512 727552 372506624
277	6485254 2694 1462 202996 3.987340085104 47.987340085104 89 512 512 45568 23330816
278	6487948 57322 1473 205222 3.987340085104 48.447232145094 1421 0 0.000320758031 0.297076794893 6.6292959464331e-05
280	6545270 2694 1465 202997 3.987340085104 47.987340085104 89 520 520 46280 24065600
281	6547964 43066 1138 205221 3.782993229208 48.447232145094 1424 520 520 740480 385049600
282	6591030 43296 1471 205221 3.987340085104 48.447232145094 1421 1 1421 1010331 957457011
283	6634326 78 1138 1398 3.782993229208 3.947232387279 3 1 3 6 14
288	6634404 2694 1467 202999 3.987340085104 47.987340085104 89 540 540 48060 25952400
289	6637098 2694 1467 202999 3.987340085104 47.987340085104 89 540 540 48060 25952400
290	6639792 40372 1135 205218 3.782993229208 48.447232145094 1335 576 576 768960 442920960
291	6680164 2694 1474 203006 3.987340085104 47.987340085104 89 576 576 51264 29528064
292	6682858 2694 1470 203002 3.987340085104 47.987340085104 89 576 576 51264 29528064
293	6685552 40372 1135 205218 3.782993229208 48.447232145094 1335 576 576 768960 442920960
294	6725924 5052 0 203027 0 47.987562085104 180 0 3 447 1161
295	6730976 80446 0 205217 0 48.447232145094 2849 0 3 5430 13440
296	6811422 10064 1475 203027 3.987340085104 47.987562085104 356 0 2 356 534
297	6821486 10 0 0 0 0 1 0 0 0 0
298	6821496 176008 0 205217 0 48.447232145094 6234 0 3 1424 3916
299	6997504 41788 7725 205258 6.173676016441 48.447232467551 1377 512 512 705024 360972288
300	7039292 2584 7714 203456 6.173676016441 48.173676016441 85 512 512 43520 22282240
301	7041876 55683 7725 205258 6.173676016441 48.447232467551 1377 0 0.000320813859 0.288262952728 6.4351234753488e-05
303	7097559 2584 7717 203457 6.173676016441 48.173676016441 85 520 520 44200 22984000
304	7100143 43100 1123 205257 3.782993136368 48.447232467551 1424 520 520 740480 385049600
305	7143243 42058 7723 205257 6.173676016441 48.447232467551 1377 1 1377 948753 871271505
306	7185301 1256 1123 7689 3.782993136368 6.134921216824 47 1 47 1128 35720
311	7186557 2584 7719 203459 6.173676016441 48.173676016441 85 540 540 45900 24786000
312	7189141 2584 7719 203459 6.173676016441 48.173676016441 85 540 540 45900 24786000
313	7191725 40516 1120 205254 3.782993136368 48.447232467551 1339 576 576 771264 444248064
314	7232241 2584 7726 203466 6.173676016441 48.173676016441 85 576 576 48960 28200960
315	7234825 2584 7722 203462 6.173676016441 48.173676016441 85 576 576 48960 28200960
316	7237409 40516 1120 205254 3.782993136368 48.447232467551 1339 576 576 771264 444248064
317	7277925 4848 0 203487 0 48.173898016441 172 0 3 427 1109
318	7282773 80513 0 205253 0 48.447232467551 2849 0 3 5442 13476
319	7363286 9656 7727 203487 6.173676016441 48.173898016441 340 0 2 340 510
320	7372942 10 0 0 0 0 1 0 0 0 0
321	7372952 175530 0 205253 0 48.447232467551 6210 0 3 1360 3740
322	7548482 42624 3312 205294 4.799632182185 48.447232786718 1408 512 512 720896 369098752
323	7591106 2669 3301 204303 4.799632182185 48.299632182185 88 512 512 45056 23068672
324	7593775 56835 3312 205294 4.799632182185 48.447232786718 1408 0 0.000320914896 0.294680931671 6.5821478105036e-05
326	7650610 2669 3304 204304 4.799632182185 48.299632182185 88 520 520 45760 23795200
327	7653279 43070 1158 205293 3.782993490394 48.447232786718 1424 520 520 740480 385049600
328	7696349 42925 3310 205293 4.799632182185 48.447232786718 1408 1 1408 991936 931427904
329	7739274 421 1158 3294 3.782993490394 4.782993644568 16 1 16 136 1496
334	7739695 2669 3306 204306 4.799632182185 48.299632182185 88 540 540 47520 25660800
335	7742364 2669 3306 204306 4.799632182185 48.299632182185 88 540 540 47520 25660800
336	7745033 40400 1155 205290 3.782993490394 48.447232786718 1336 576 576 769536 443252736
337	7785433 2669 3313 204313 4.799632182185 48.299632182185 88 576 576 50688 29196288
338	7788102 2669 3309 204309 4.799632182185 48.299632182185 88 576 576 50688 29196288
339	7790771 40400 1155 205290 3.782993490394 48.447232786718 1336 576 576 769536 443252736
340	7831171 5006 0 204334 0 48.299854182185 178 0 3 442 1148
341	7836177 80452 0 205289 0 48.447232786718 2849 0 3 5433 13449
342	7916629 9972 3314 204334 4.799632182185 48.299854182185 352 0 2 352 528
343	7926601 10 0 0 0 0 1 0 0 0 0
344	7926611 175882 0 205289 0 48.447232786718 6228 0 3 1408 3872
345	8102493 42707 2932 205252 4.745069205764 48.447232429878 1411 512 512 722432 369885184
346	8145200 2669 2921 204032 4.745069205764 48.245069205764 88 512 512 45056 23068672
347	8147869 56937 2932 205252 4.745069205764 48.447232429878 1411 0 0.000320903806 0.295244401858 6.5923295475933e-05
349	8204806 2669 2924 204033 4.745069205764 48.245069205764 88 520 520 45760 23795200
350	8207475 43071 1128 205251 3.782993167774 48.447232429878 1424 520 520 740480 385049600
351	8250546 43011 2930 205251 4.745069205764 48.447232429878 1411 1 1411 996166 937392206
352	8293557 342 1128 2880 3.782993167774 4.684534513316 13 1 13 91 819
357	8293899 2669 2926 204035 4.745069205764 48.245069205764 88 540 540 47520 25660800
358	8296568 2669 2926 204035 4.745069205764 48.245069205764 88 540 540 47520 25660800
359	8299237 40402 1125 205248 3.782993167774 48.447232429878 1336 576 576 769536 443252736
360	8339639 2669 2933 204042 4.745069205764 48.245069205764 88 576 576 50688 29196288
361	8342308 2669 2929 204038 4.745069205764 48.245069205764 88 576 576 50688 29196288
362	8344977 40402 1125 205248 3.782993167774 48.447232429878 1336 576 576 769536 443252736
363	8385379 5006 0 204063 0 48.245291205764 178 0 3 442 1148
364	8390385 80456 0 205247 0 48.447232429878 2849 0 3 5433 13449
365	8470841 9972 2934 204063 4.745069205764 48.245291205764 352 0 2 352 528
366	8480813 10 0 0 0 0 1 0 0 0 0
367	8480823 175890 0 205247 0 48.447232429878 6228 0 3 1408 3872
368	8656713 38100 3477 205216 4.86327786861 48.44723214427 1259 512 512 644608 330039296
369	8694813 2320 3466 204726 4.86327786861 48.36327786861 79 512 512 40448 20709376
370	8697133 50788 3477 205216 4.86327786861 48.44723214427 1259 0 0.000320303095 0.263124127541 5.8708857826233e-05
372	8747921 2320 3469 204727 4.86327786861 48.36327786861 79 520 520 41080 21361600
373	8750241 42998 1148 205215 3.782993350198 48.44723214427 1424 520 520 740480 385049600
374	8793239 42825 3475 205215 4.86327786861 48.44723214427 1407 1 1407 990528 929445440
375	8836064 447 1148 3339 3.782993350198 4.799854383953 17 1 17 153 1785
380	8836511 2320 3471 204729 4.86327786861 48.36327786861 79 540 540 42660 23036400
381	8838831 2320 3471 204729 4.86327786861 48.36327786861 79 540 540 42660 23036400
382	8841151 40678 1145 205212 3.782993350198 48.44723214427 1345 576 576 774720 446238720
383	8881829 2320 3478 204736 4.86327786861 48.36327786861 79 576 576 45504 26210304
384	8884149 2320 3474 204732 4.86327786861 48.36327786861 79 576 576 45504 26210304
385	8886469 40678 1145 205212 3.782993350198 48.44723214427 1345 576 576 774720 446238720
386	8927147 4344 0 204757 0 48.36349986861 160 0 3 397 1031
387	8931491 80310 0 205211 0 48.44723214427 2849 0 3 5460 13530
388	9011801 8648 3479 204757 4.86327786861 48.36349986861 316 0 2 316 474
389	9020449 10 0 0 0 0 1 0 0 0 0
390	9020459 173612 0 205211 0 48.44723214427 6174 0 3 1264 3476
391	9194071 27157 10589 205264 6.822661775387 48.447232492195 892 512 512 456704 233832448
392	9221228 1677 10578 204456 6.822661775387 48.322661775387 55 512 512 28160 14417920
393	9222905 36142 10589 205264 6.822661775387 48.447232492195 892 0 0.000320175554 0.186677741024 4.1661018553156e-05
395	9259047 1677 10581 204457 6.822661775387 48.322661775387 55 520 520 28600 14872000
396	9260724 43096 1153 205263 3.782993393461 48.447232492195 1424 520 520 740480 385049600
397	9303820 41470 10587 205263 6.822661775387 48.447232492195 1357 1 1357 921403 833869715
398	9345290 1800 1153 10463 3.782993393461 6.79985489252 67 1 67 2278 102510
403	9347090 1677 10583 204459 6.822661775387 48.322661775387 55 540 540 29700 16038000
404	9348767 1677 10583 204459 6.822661775387 48.322661775387 55 540 540 29700 16038000
405	9350444 41419 1150 205260 3.782993393461 48.447232492195 1369 576 576 788544 454201344
406	9391863 1677 10590 204466 6.822661775387 48.322661775387 55 576 576 31680 18247680
407	9393540 1677 10586 204462 6.822661775387 48.322661775387 55 576 576 31680 18247680
408	9395217 41419 1150 205260 3.782993393461 48.447232492195 1369 576 576 788544 454201344
409	9436636 3154 0 204487 0 48.322883775387 112 0 3 277 719
410	9439790 80506 0 205259 0 48.447232492195 2849 0 3 5532 13746
411	9520296 6268 10591 204487 6.822661775387 48.322883775387 220 0 2 220 330
412	9526564 10 0 0 0 0 1 0 0 0 0
413	9526574 170434 0 205259 0 48.447232492195 6030 0 3 880 2420
