file 15371 1475148049                                           
version 2
run General-0-20160929-13:20:22-23136
attr configname General
attr datetime 20160929-13:20:22
attr experiment General
attr inifile omnetpp.ini
attr iterationvars ""
attr iterationvars2 $repetition=0
attr measurement ""
attr network Net80211test
attr processid 23136
attr repetition 0
attr replication #0
attr resultdir results
attr runnumber 0
attr seedset 0
param **.constraintAreaMaxX 600m
param **.constraintAreaMaxY 400m
param **.constraintAreaMaxZ 0m
param **.constraintAreaMinX 0m
param **.constraintAreaMinY 0m
param **.constraintAreaMinZ 0m
param **.host*.mobility.initFromDisplayString false
param **.host*.mobility.initialX "normal(300m, 50m)"
param **.host*.mobility.initialY "normal(200m, 50m)"
param **.host*.mobility.updateInterval 100ms
param **.host*.mobilityType "\"VirtualSpringMobility\""
param **.host[*].battery.initialCapacity "normal(700J, 50J)"
param **.host[*].networkLayerType "\"IPv4ExtNetworkLayer\""
param **.host[*].udpType "\"UDPExt\""
param **.ip.forceBroadcast true
param **.udpApp[0].destAddresses "\"255.255.255.255\""
param **.udpApp[0].destPort 100
param **.udpApp[0].isCentralized true
param **.udpApp[0].localAddress "\"\""
param **.udpApp[0].localPort 100
param **.udpApp[0].messageLength 512B
param **.udpApp[0].receiveBroadcast true
param **.udpApp[0].sendInterval 0.5s
param **.udpApp[0].startTime "truncnormal(5s, 1s)"
param **.wlan[*].bitrate 2Mbps
param **.wlan[*].mac.address "\"auto\""
param **.wlan[*].mac.cwMinBroadcast 31
param **.wlan[*].mac.cwMinData 7
param **.wlan[*].mac.maxQueueSize 14
param **.wlan[*].mac.retryLimit 7
param **.wlan[*].mac.rtsThresholdBytes 3000B
param **.wlan[*].macType "\"Ieee80211MacExt\""
param **.wlan[*].mgmt.frameCapacity 10
param **.wlan[*].mgmtType "\"Ieee80211MgmtAdhocExt\""
param **.wlan[*].radio.receiver.sensitivity -85dBm
param **.wlan[*].radio.receiver.snirThreshold 4dB
param **.wlan[*].radio.receiverType "\"Ieee80211ScalarReceiverExt\""
param **.wlan[*].radio.transmitter.power 100mW
param *.host[*].numUdpApps 1
param *.host[*].udpApp[*].typename "\"UDPBasicRecharge\""
param *.numHosts 17

vector 22  Net80211test.host[0].wlan[0].mac.ctn[0]  state:vector  ETV
attr interpolationmode  none
attr source  stateChanged
attr title  "contention state, vector"
vector 45  Net80211test.host[1].wlan[0].mac.ctn[0]  state:vector  ETV
attr interpolationmode  none
attr source  stateChanged
attr title  "contention state, vector"
vector 68  Net80211test.host[2].wlan[0].mac.ctn[0]  state:vector  ETV
attr interpolationmode  none
attr source  stateChanged
attr title  "contention state, vector"
vector 91  Net80211test.host[3].wlan[0].mac.ctn[0]  state:vector  ETV
attr interpolationmode  none
attr source  stateChanged
attr title  "contention state, vector"
vector 114  Net80211test.host[4].wlan[0].mac.ctn[0]  state:vector  ETV
attr interpolationmode  none
attr source  stateChanged
attr title  "contention state, vector"
vector 137  Net80211test.host[5].wlan[0].mac.ctn[0]  state:vector  ETV
attr interpolationmode  none
attr source  stateChanged
attr title  "contention state, vector"
vector 160  Net80211test.host[6].wlan[0].mac.ctn[0]  state:vector  ETV
attr interpolationmode  none
attr source  stateChanged
attr title  "contention state, vector"
vector 183  Net80211test.host[7].wlan[0].mac.ctn[0]  state:vector  ETV
attr interpolationmode  none
attr source  stateChanged
attr title  "contention state, vector"
vector 206  Net80211test.host[8].wlan[0].mac.ctn[0]  state:vector  ETV
attr interpolationmode  none
attr source  stateChanged
attr title  "contention state, vector"
vector 229  Net80211test.host[9].wlan[0].mac.ctn[0]  state:vector  ETV
attr interpolationmode  none
attr source  stateChanged
attr title  "contention state, vector"
vector 252  Net80211test.host[10].wlan[0].mac.ctn[0]  state:vector  ETV
attr interpolationmode  none
attr source  stateChanged
attr title  "contention state, vector"
vector 275  Net80211test.host[11].wlan[0].mac.ctn[0]  state:vector  ETV
attr interpolationmode  none
attr source  stateChanged
attr title  "contention state, vector"
vector 298  Net80211test.host[12].wlan[0].mac.ctn[0]  state:vector  ETV
attr interpolationmode  none
attr source  stateChanged
attr title  "contention state, vector"
vector 321  Net80211test.host[13].wlan[0].mac.ctn[0]  state:vector  ETV
attr interpolationmode  none
attr source  stateChanged
attr title  "contention state, vector"
vector 344  Net80211test.host[14].wlan[0].mac.ctn[0]  state:vector  ETV
attr interpolationmode  none
attr source  stateChanged
attr title  "contention state, vector"
vector 367  Net80211test.host[15].wlan[0].mac.ctn[0]  state:vector  ETV
attr interpolationmode  none
attr source  stateChanged
attr title  "contention state, vector"
vector 390  Net80211test.host[16].wlan[0].mac.ctn[0]  state:vector  ETV
attr interpolationmode  none
attr source  stateChanged
attr title  "contention state, vector"
vector 18  Net80211test.host[0].wlan[0].radio  radioMode:vector  ETV
attr interpolationmode  sample-hold
attr source  radioModeChanged
attr title  "Radio mode, vector"
vector 21  Net80211test.host[0].wlan[0].radio  radioChannel:vector  ETV
attr interpolationmode  sample-hold
attr source  radioChannelChanged
attr title  "Radio channel, vector"
vector 41  Net80211test.host[1].wlan[0].radio  radioMode:vector  ETV
attr interpolationmode  sample-hold
attr source  radioModeChanged
attr title  "Radio mode, vector"
vector 44  Net80211test.host[1].wlan[0].radio  radioChannel:vector  ETV
attr interpolationmode  sample-hold
attr source  radioChannelChanged
attr title  "Radio channel, vector"
vector 64  Net80211test.host[2].wlan[0].radio  radioMode:vector  ETV
attr interpolationmode  sample-hold
attr source  radioModeChanged
attr title  "Radio mode, vector"
vector 67  Net80211test.host[2].wlan[0].radio  radioChannel:vector  ETV
attr interpolationmode  sample-hold
attr source  radioChannelChanged
attr title  "Radio channel, vector"
vector 87  Net80211test.host[3].wlan[0].radio  radioMode:vector  ETV
attr interpolationmode  sample-hold
attr source  radioModeChanged
attr title  "Radio mode, vector"
vector 90  Net80211test.host[3].wlan[0].radio  radioChannel:vector  ETV
attr interpolationmode  sample-hold
attr source  radioChannelChanged
attr title  "Radio channel, vector"
vector 110  Net80211test.host[4].wlan[0].radio  radioMode:vector  ETV
attr interpolationmode  sample-hold
attr source  radioModeChanged
attr title  "Radio mode, vector"
vector 113  Net80211test.host[4].wlan[0].radio  radioChannel:vector  ETV
attr interpolationmode  sample-hold
attr source  radioChannelChanged
attr title  "Radio channel, vector"
vector 133  Net80211test.host[5].wlan[0].radio  radioMode:vector  ETV
attr interpolationmode  sample-hold
attr source  radioModeChanged
attr title  "Radio mode, vector"
vector 136  Net80211test.host[5].wlan[0].radio  radioChannel:vector  ETV
attr interpolationmode  sample-hold
attr source  radioChannelChanged
attr title  "Radio channel, vector"
vector 156  Net80211test.host[6].wlan[0].radio  radioMode:vector  ETV
attr interpolationmode  sample-hold
attr source  radioModeChanged
attr title  "Radio mode, vector"
vector 159  Net80211test.host[6].wlan[0].radio  radioChannel:vector  ETV
attr interpolationmode  sample-hold
attr source  radioChannelChanged
attr title  "Radio channel, vector"
vector 179  Net80211test.host[7].wlan[0].radio  radioMode:vector  ETV
attr interpolationmode  sample-hold
attr source  radioModeChanged
attr title  "Radio mode, vector"
vector 182  Net80211test.host[7].wlan[0].radio  radioChannel:vector  ETV
attr interpolationmode  sample-hold
attr source  radioChannelChanged
attr title  "Radio channel, vector"
vector 202  Net80211test.host[8].wlan[0].radio  radioMode:vector  ETV
attr interpolationmode  sample-hold
attr source  radioModeChanged
attr title  "Radio mode, vector"
vector 205  Net80211test.host[8].wlan[0].radio  radioChannel:vector  ETV
attr interpolationmode  sample-hold
attr source  radioChannelChanged
attr title  "Radio channel, vector"
vector 225  Net80211test.host[9].wlan[0].radio  radioMode:vector  ETV
attr interpolationmode  sample-hold
attr source  radioModeChanged
attr title  "Radio mode, vector"
vector 228  Net80211test.host[9].wlan[0].radio  radioChannel:vector  ETV
attr interpolationmode  sample-hold
attr source  radioChannelChanged
attr title  "Radio channel, vector"
vector 248  Net80211test.host[10].wlan[0].radio  radioMode:vector  ETV
attr interpolationmode  sample-hold
attr source  radioModeChanged
attr title  "Radio mode, vector"
vector 251  Net80211test.host[10].wlan[0].radio  radioChannel:vector  ETV
attr interpolationmode  sample-hold
attr source  radioChannelChanged
attr title  "Radio channel, vector"
vector 271  Net80211test.host[11].wlan[0].radio  radioMode:vector  ETV
attr interpolationmode  sample-hold
attr source  radioModeChanged
attr title  "Radio mode, vector"
vector 274  Net80211test.host[11].wlan[0].radio  radioChannel:vector  ETV
attr interpolationmode  sample-hold
attr source  radioChannelChanged
attr title  "Radio channel, vector"
vector 294  Net80211test.host[12].wlan[0].radio  radioMode:vector  ETV
attr interpolationmode  sample-hold
attr source  radioModeChanged
attr title  "Radio mode, vector"
vector 297  Net80211test.host[12].wlan[0].radio  radioChannel:vector  ETV
attr interpolationmode  sample-hold
attr source  radioChannelChanged
attr title  "Radio channel, vector"
vector 317  Net80211test.host[13].wlan[0].radio  radioMode:vector  ETV
attr interpolationmode  sample-hold
attr source  radioModeChanged
attr title  "Radio mode, vector"
vector 320  Net80211test.host[13].wlan[0].radio  radioChannel:vector  ETV
attr interpolationmode  sample-hold
attr source  radioChannelChanged
attr title  "Radio channel, vector"
vector 340  Net80211test.host[14].wlan[0].radio  radioMode:vector  ETV
attr interpolationmode  sample-hold
attr source  radioModeChanged
attr title  "Radio mode, vector"
vector 343  Net80211test.host[14].wlan[0].radio  radioChannel:vector  ETV
attr interpolationmode  sample-hold
attr source  radioChannelChanged
attr title  "Radio channel, vector"
vector 363  Net80211test.host[15].wlan[0].radio  radioMode:vector  ETV
attr interpolationmode  sample-hold
attr source  radioModeChanged
attr title  "Radio mode, vector"
vector 366  Net80211test.host[15].wlan[0].radio  radioChannel:vector  ETV
attr interpolationmode  sample-hold
attr source  radioChannelChanged
attr title  "Radio channel, vector"
vector 386  Net80211test.host[16].wlan[0].radio  radioMode:vector  ETV
attr interpolationmode  sample-hold
attr source  radioModeChanged
attr title  "Radio mode, vector"
vector 389  Net80211test.host[16].wlan[0].radio  radioChannel:vector  ETV
attr interpolationmode  sample-hold
attr source  radioChannelChanged
attr title  "Radio channel, vector"
vector 19  Net80211test.host[0].wlan[0].radio  receptionState:vector  ETV
attr interpolationmode  sample-hold
attr source  receptionStateChanged
attr title  "Radio reception state, vector"
vector 42  Net80211test.host[1].wlan[0].radio  receptionState:vector  ETV
attr interpolationmode  sample-hold
attr source  receptionStateChanged
attr title  "Radio reception state, vector"
vector 65  Net80211test.host[2].wlan[0].radio  receptionState:vector  ETV
attr interpolationmode  sample-hold
attr source  receptionStateChanged
attr title  "Radio reception state, vector"
vector 88  Net80211test.host[3].wlan[0].radio  receptionState:vector  ETV
attr interpolationmode  sample-hold
attr source  receptionStateChanged
attr title  "Radio reception state, vector"
vector 111  Net80211test.host[4].wlan[0].radio  receptionState:vector  ETV
attr interpolationmode  sample-hold
attr source  receptionStateChanged
attr title  "Radio reception state, vector"
vector 134  Net80211test.host[5].wlan[0].radio  receptionState:vector  ETV
attr interpolationmode  sample-hold
attr source  receptionStateChanged
attr title  "Radio reception state, vector"
vector 157  Net80211test.host[6].wlan[0].radio  receptionState:vector  ETV
attr interpolationmode  sample-hold
attr source  receptionStateChanged
attr title  "Radio reception state, vector"
vector 180  Net80211test.host[7].wlan[0].radio  receptionState:vector  ETV
attr interpolationmode  sample-hold
attr source  receptionStateChanged
attr title  "Radio reception state, vector"
vector 203  Net80211test.host[8].wlan[0].radio  receptionState:vector  ETV
attr interpolationmode  sample-hold
attr source  receptionStateChanged
attr title  "Radio reception state, vector"
vector 226  Net80211test.host[9].wlan[0].radio  receptionState:vector  ETV
attr interpolationmode  sample-hold
attr source  receptionStateChanged
attr title  "Radio reception state, vector"
vector 249  Net80211test.host[10].wlan[0].radio  receptionState:vector  ETV
attr interpolationmode  sample-hold
attr source  receptionStateChanged
attr title  "Radio reception state, vector"
vector 272  Net80211test.host[11].wlan[0].radio  receptionState:vector  ETV
attr interpolationmode  sample-hold
attr source  receptionStateChanged
attr title  "Radio reception state, vector"
vector 295  Net80211test.host[12].wlan[0].radio  receptionState:vector  ETV
attr interpolationmode  sample-hold
attr source  receptionStateChanged
attr title  "Radio reception state, vector"
vector 318  Net80211test.host[13].wlan[0].radio  receptionState:vector  ETV
attr interpolationmode  sample-hold
attr source  receptionStateChanged
attr title  "Radio reception state, vector"
vector 341  Net80211test.host[14].wlan[0].radio  receptionState:vector  ETV
attr interpolationmode  sample-hold
attr source  receptionStateChanged
attr title  "Radio reception state, vector"
vector 364  Net80211test.host[15].wlan[0].radio  receptionState:vector  ETV
attr interpolationmode  sample-hold
attr source  receptionStateChanged
attr title  "Radio reception state, vector"
vector 387  Net80211test.host[16].wlan[0].radio  receptionState:vector  ETV
attr interpolationmode  sample-hold
attr source  receptionStateChanged
attr title  "Radio reception state, vector"
18	14043 18 0 0 0 0 2 0 2 2 4
19	14061 9 0 0 0 0 1 1 1 1 1
21	14070 9 0 0 0 0 1 0 0 0 0
22	14079 36 0 0 0 0 4 0 0 0 0
41	14115 18 0 0 0 0 2 0 2 2 4
42	14133 9 0 0 0 0 1 1 1 1 1
44	14142 9 0 0 0 0 1 0 0 0 0
45	14151 36 0 0 0 0 4 0 0 0 0
64	14187 18 0 0 0 0 2 0 2 2 4
65	14205 9 0 0 0 0 1 1 1 1 1
67	14214 9 0 0 0 0 1 0 0 0 0
68	14223 36 0 0 0 0 4 0 0 0 0
87	14259 18 0 0 0 0 2 0 2 2 4
88	14277 9 0 0 0 0 1 1 1 1 1
90	14286 9 0 0 0 0 1 0 0 0 0
91	14295 36 0 0 0 0 4 0 0 0 0
110	14331 20 0 0 0 0 2 0 2 2 4
111	14351 10 0 0 0 0 1 1 1 1 1
113	14361 10 0 0 0 0 1 0 0 0 0
114	14371 40 0 0 0 0 4 0 0 0 0
133	14411 20 0 0 0 0 2 0 2 2 4
134	14431 10 0 0 0 0 1 1 1 1 1
136	14441 10 0 0 0 0 1 0 0 0 0
137	14451 40 0 0 0 0 4 0 0 0 0
156	14491 20 0 0 0 0 2 0 2 2 4
157	14511 10 0 0 0 0 1 1 1 1 1
159	14521 10 0 0 0 0 1 0 0 0 0
160	14531 40 0 0 0 0 4 0 0 0 0
179	14571 20 0 0 0 0 2 0 2 2 4
180	14591 10 0 0 0 0 1 1 1 1 1
182	14601 10 0 0 0 0 1 0 0 0 0
183	14611 40 0 0 0 0 4 0 0 0 0
202	14651 20 0 0 0 0 2 0 2 2 4
203	14671 10 0 0 0 0 1 1 1 1 1
205	14681 10 0 0 0 0 1 0 0 0 0
206	14691 40 0 0 0 0 4 0 0 0 0
225	14731 20 0 0 0 0 2 0 2 2 4
226	14751 10 0 0 0 0 1 1 1 1 1
228	14761 10 0 0 0 0 1 0 0 0 0
229	14771 40 0 0 0 0 4 0 0 0 0
248	14811 20 0 0 0 0 2 0 2 2 4
249	14831 10 0 0 0 0 1 1 1 1 1
251	14841 10 0 0 0 0 1 0 0 0 0
252	14851 40 0 0 0 0 4 0 0 0 0
271	14891 20 0 0 0 0 2 0 2 2 4
272	14911 10 0 0 0 0 1 1 1 1 1
274	14921 10 0 0 0 0 1 0 0 0 0
275	14931 40 0 0 0 0 4 0 0 0 0
294	14971 20 0 0 0 0 2 0 2 2 4
295	14991 10 0 0 0 0 1 1 1 1 1
297	15001 10 0 0 0 0 1 0 0 0 0
298	15011 40 0 0 0 0 4 0 0 0 0
317	15051 20 0 0 0 0 2 0 2 2 4
318	15071 10 0 0 0 0 1 1 1 1 1
320	15081 10 0 0 0 0 1 0 0 0 0
321	15091 40 0 0 0 0 4 0 0 0 0
340	15131 20 0 0 0 0 2 0 2 2 4
341	15151 10 0 0 0 0 1 1 1 1 1
343	15161 10 0 0 0 0 1 0 0 0 0
344	15171 40 0 0 0 0 4 0 0 0 0
363	15211 20 0 0 0 0 2 0 2 2 4
364	15231 10 0 0 0 0 1 1 1 1 1
366	15241 10 0 0 0 0 1 0 0 0 0
367	15251 40 0 0 0 0 4 0 0 0 0
386	15291 20 0 0 0 0 2 0 2 2 4
387	15311 10 0 0 0 0 1 1 1 1 1
389	15321 10 0 0 0 0 1 0 0 0 0
390	15331 40 0 0 0 0 4 0 0 0 0
