file 2403633 1475078318                                         
version 2
run General-0-20160928-17:58:29-31565
attr configname General
attr datetime 20160928-17:58:29
attr experiment General
attr inifile omnetpp.ini
attr iterationvars ""
attr iterationvars2 $repetition=0
attr measurement ""
attr network Net80211test
attr processid 31565
attr repetition 0
attr replication #0
attr resultdir results
attr runnumber 0
attr seedset 0
param **.constraintAreaMaxX 600m
param **.constraintAreaMaxY 400m
param **.constraintAreaMaxZ 0m
param **.constraintAreaMinX 0m
param **.constraintAreaMinY 0m
param **.constraintAreaMinZ 0m
param **.host*.mobility.initFromDisplayString false
param **.host*.mobility.initialX "normal(300m, 50m)"
param **.host*.mobility.initialY "normal(200m, 50m)"
param **.host*.mobility.updateInterval 100ms
param **.host*.mobilityType "\"VirtualSpringMobility\""
param **.host[*].battery.initialCapacity "normal(700J, 50J)"
param **.host[*].networkLayerType "\"IPv4ExtNetworkLayer\""
param **.host[*].udpType "\"UDPExt\""
param **.ip.forceBroadcast true
param **.udpApp[0].destAddresses "\"255.255.255.255\""
param **.udpApp[0].destPort 100
param **.udpApp[0].isCentralized true
param **.udpApp[0].localAddress "\"\""
param **.udpApp[0].localPort 100
param **.udpApp[0].messageLength 512B
param **.udpApp[0].receiveBroadcast true
param **.udpApp[0].sendInterval 0.5s
param **.udpApp[0].startTime "truncnormal(5s, 1s)"
param **.wlan[*].bitrate 2Mbps
param **.wlan[*].mac.address "\"auto\""
param **.wlan[*].mac.cwMinBroadcast 31
param **.wlan[*].mac.cwMinData 7
param **.wlan[*].mac.maxQueueSize 14
param **.wlan[*].mac.retryLimit 7
param **.wlan[*].mac.rtsThresholdBytes 3000B
param **.wlan[*].macType "\"Ieee80211MacExt\""
param **.wlan[*].mgmt.frameCapacity 10
param **.wlan[*].mgmtType "\"Ieee80211MgmtAdhocExt\""
param **.wlan[*].radio.receiver.sensitivity -85dBm
param **.wlan[*].radio.receiver.snirThreshold 4dB
param **.wlan[*].radio.receiverType "\"Ieee80211ScalarReceiverExt\""
param **.wlan[*].radio.transmitter.power 100mW
param *.host[*].numUdpApps 1
param *.host[*].udpApp[*].typename "\"UDPBasicRecharge\""
param *.numHosts 17

vector 22  Net80211test.host[0].wlan[0].mac.ctn[0]  state:vector  ETV
attr interpolationmode  none
attr source  stateChanged
attr title  "contention state, vector"
vector 45  Net80211test.host[1].wlan[0].mac.ctn[0]  state:vector  ETV
attr interpolationmode  none
attr source  stateChanged
attr title  "contention state, vector"
vector 68  Net80211test.host[2].wlan[0].mac.ctn[0]  state:vector  ETV
attr interpolationmode  none
attr source  stateChanged
attr title  "contention state, vector"
vector 91  Net80211test.host[3].wlan[0].mac.ctn[0]  state:vector  ETV
attr interpolationmode  none
attr source  stateChanged
attr title  "contention state, vector"
vector 114  Net80211test.host[4].wlan[0].mac.ctn[0]  state:vector  ETV
attr interpolationmode  none
attr source  stateChanged
attr title  "contention state, vector"
vector 137  Net80211test.host[5].wlan[0].mac.ctn[0]  state:vector  ETV
attr interpolationmode  none
attr source  stateChanged
attr title  "contention state, vector"
vector 160  Net80211test.host[6].wlan[0].mac.ctn[0]  state:vector  ETV
attr interpolationmode  none
attr source  stateChanged
attr title  "contention state, vector"
vector 183  Net80211test.host[7].wlan[0].mac.ctn[0]  state:vector  ETV
attr interpolationmode  none
attr source  stateChanged
attr title  "contention state, vector"
vector 206  Net80211test.host[8].wlan[0].mac.ctn[0]  state:vector  ETV
attr interpolationmode  none
attr source  stateChanged
attr title  "contention state, vector"
vector 229  Net80211test.host[9].wlan[0].mac.ctn[0]  state:vector  ETV
attr interpolationmode  none
attr source  stateChanged
attr title  "contention state, vector"
vector 252  Net80211test.host[10].wlan[0].mac.ctn[0]  state:vector  ETV
attr interpolationmode  none
attr source  stateChanged
attr title  "contention state, vector"
vector 275  Net80211test.host[11].wlan[0].mac.ctn[0]  state:vector  ETV
attr interpolationmode  none
attr source  stateChanged
attr title  "contention state, vector"
vector 298  Net80211test.host[12].wlan[0].mac.ctn[0]  state:vector  ETV
attr interpolationmode  none
attr source  stateChanged
attr title  "contention state, vector"
vector 321  Net80211test.host[13].wlan[0].mac.ctn[0]  state:vector  ETV
attr interpolationmode  none
attr source  stateChanged
attr title  "contention state, vector"
vector 344  Net80211test.host[14].wlan[0].mac.ctn[0]  state:vector  ETV
attr interpolationmode  none
attr source  stateChanged
attr title  "contention state, vector"
vector 367  Net80211test.host[15].wlan[0].mac.ctn[0]  state:vector  ETV
attr interpolationmode  none
attr source  stateChanged
attr title  "contention state, vector"
vector 390  Net80211test.host[16].wlan[0].mac.ctn[0]  state:vector  ETV
attr interpolationmode  none
attr source  stateChanged
attr title  "contention state, vector"
vector 18  Net80211test.host[0].wlan[0].radio  radioMode:vector  ETV
attr interpolationmode  sample-hold
attr source  radioModeChanged
attr title  "Radio mode, vector"
vector 21  Net80211test.host[0].wlan[0].radio  radioChannel:vector  ETV
attr interpolationmode  sample-hold
attr source  radioChannelChanged
attr title  "Radio channel, vector"
vector 41  Net80211test.host[1].wlan[0].radio  radioMode:vector  ETV
attr interpolationmode  sample-hold
attr source  radioModeChanged
attr title  "Radio mode, vector"
vector 44  Net80211test.host[1].wlan[0].radio  radioChannel:vector  ETV
attr interpolationmode  sample-hold
attr source  radioChannelChanged
attr title  "Radio channel, vector"
vector 64  Net80211test.host[2].wlan[0].radio  radioMode:vector  ETV
attr interpolationmode  sample-hold
attr source  radioModeChanged
attr title  "Radio mode, vector"
vector 67  Net80211test.host[2].wlan[0].radio  radioChannel:vector  ETV
attr interpolationmode  sample-hold
attr source  radioChannelChanged
attr title  "Radio channel, vector"
vector 87  Net80211test.host[3].wlan[0].radio  radioMode:vector  ETV
attr interpolationmode  sample-hold
attr source  radioModeChanged
attr title  "Radio mode, vector"
vector 90  Net80211test.host[3].wlan[0].radio  radioChannel:vector  ETV
attr interpolationmode  sample-hold
attr source  radioChannelChanged
attr title  "Radio channel, vector"
vector 110  Net80211test.host[4].wlan[0].radio  radioMode:vector  ETV
attr interpolationmode  sample-hold
attr source  radioModeChanged
attr title  "Radio mode, vector"
vector 113  Net80211test.host[4].wlan[0].radio  radioChannel:vector  ETV
attr interpolationmode  sample-hold
attr source  radioChannelChanged
attr title  "Radio channel, vector"
vector 133  Net80211test.host[5].wlan[0].radio  radioMode:vector  ETV
attr interpolationmode  sample-hold
attr source  radioModeChanged
attr title  "Radio mode, vector"
vector 136  Net80211test.host[5].wlan[0].radio  radioChannel:vector  ETV
attr interpolationmode  sample-hold
attr source  radioChannelChanged
attr title  "Radio channel, vector"
vector 156  Net80211test.host[6].wlan[0].radio  radioMode:vector  ETV
attr interpolationmode  sample-hold
attr source  radioModeChanged
attr title  "Radio mode, vector"
vector 159  Net80211test.host[6].wlan[0].radio  radioChannel:vector  ETV
attr interpolationmode  sample-hold
attr source  radioChannelChanged
attr title  "Radio channel, vector"
vector 179  Net80211test.host[7].wlan[0].radio  radioMode:vector  ETV
attr interpolationmode  sample-hold
attr source  radioModeChanged
attr title  "Radio mode, vector"
vector 182  Net80211test.host[7].wlan[0].radio  radioChannel:vector  ETV
attr interpolationmode  sample-hold
attr source  radioChannelChanged
attr title  "Radio channel, vector"
vector 202  Net80211test.host[8].wlan[0].radio  radioMode:vector  ETV
attr interpolationmode  sample-hold
attr source  radioModeChanged
attr title  "Radio mode, vector"
vector 205  Net80211test.host[8].wlan[0].radio  radioChannel:vector  ETV
attr interpolationmode  sample-hold
attr source  radioChannelChanged
attr title  "Radio channel, vector"
vector 225  Net80211test.host[9].wlan[0].radio  radioMode:vector  ETV
attr interpolationmode  sample-hold
attr source  radioModeChanged
attr title  "Radio mode, vector"
vector 228  Net80211test.host[9].wlan[0].radio  radioChannel:vector  ETV
attr interpolationmode  sample-hold
attr source  radioChannelChanged
attr title  "Radio channel, vector"
vector 248  Net80211test.host[10].wlan[0].radio  radioMode:vector  ETV
attr interpolationmode  sample-hold
attr source  radioModeChanged
attr title  "Radio mode, vector"
vector 251  Net80211test.host[10].wlan[0].radio  radioChannel:vector  ETV
attr interpolationmode  sample-hold
attr source  radioChannelChanged
attr title  "Radio channel, vector"
vector 271  Net80211test.host[11].wlan[0].radio  radioMode:vector  ETV
attr interpolationmode  sample-hold
attr source  radioModeChanged
attr title  "Radio mode, vector"
vector 274  Net80211test.host[11].wlan[0].radio  radioChannel:vector  ETV
attr interpolationmode  sample-hold
attr source  radioChannelChanged
attr title  "Radio channel, vector"
vector 294  Net80211test.host[12].wlan[0].radio  radioMode:vector  ETV
attr interpolationmode  sample-hold
attr source  radioModeChanged
attr title  "Radio mode, vector"
vector 297  Net80211test.host[12].wlan[0].radio  radioChannel:vector  ETV
attr interpolationmode  sample-hold
attr source  radioChannelChanged
attr title  "Radio channel, vector"
vector 317  Net80211test.host[13].wlan[0].radio  radioMode:vector  ETV
attr interpolationmode  sample-hold
attr source  radioModeChanged
attr title  "Radio mode, vector"
vector 320  Net80211test.host[13].wlan[0].radio  radioChannel:vector  ETV
attr interpolationmode  sample-hold
attr source  radioChannelChanged
attr title  "Radio channel, vector"
vector 340  Net80211test.host[14].wlan[0].radio  radioMode:vector  ETV
attr interpolationmode  sample-hold
attr source  radioModeChanged
attr title  "Radio mode, vector"
vector 343  Net80211test.host[14].wlan[0].radio  radioChannel:vector  ETV
attr interpolationmode  sample-hold
attr source  radioChannelChanged
attr title  "Radio channel, vector"
vector 363  Net80211test.host[15].wlan[0].radio  radioMode:vector  ETV
attr interpolationmode  sample-hold
attr source  radioModeChanged
attr title  "Radio mode, vector"
vector 366  Net80211test.host[15].wlan[0].radio  radioChannel:vector  ETV
attr interpolationmode  sample-hold
attr source  radioChannelChanged
attr title  "Radio channel, vector"
vector 386  Net80211test.host[16].wlan[0].radio  radioMode:vector  ETV
attr interpolationmode  sample-hold
attr source  radioModeChanged
attr title  "Radio mode, vector"
vector 389  Net80211test.host[16].wlan[0].radio  radioChannel:vector  ETV
attr interpolationmode  sample-hold
attr source  radioChannelChanged
attr title  "Radio channel, vector"
vector 19  Net80211test.host[0].wlan[0].radio  receptionState:vector  ETV
attr interpolationmode  sample-hold
attr source  receptionStateChanged
attr title  "Radio reception state, vector"
vector 42  Net80211test.host[1].wlan[0].radio  receptionState:vector  ETV
attr interpolationmode  sample-hold
attr source  receptionStateChanged
attr title  "Radio reception state, vector"
vector 65  Net80211test.host[2].wlan[0].radio  receptionState:vector  ETV
attr interpolationmode  sample-hold
attr source  receptionStateChanged
attr title  "Radio reception state, vector"
vector 88  Net80211test.host[3].wlan[0].radio  receptionState:vector  ETV
attr interpolationmode  sample-hold
attr source  receptionStateChanged
attr title  "Radio reception state, vector"
vector 111  Net80211test.host[4].wlan[0].radio  receptionState:vector  ETV
attr interpolationmode  sample-hold
attr source  receptionStateChanged
attr title  "Radio reception state, vector"
vector 134  Net80211test.host[5].wlan[0].radio  receptionState:vector  ETV
attr interpolationmode  sample-hold
attr source  receptionStateChanged
attr title  "Radio reception state, vector"
vector 157  Net80211test.host[6].wlan[0].radio  receptionState:vector  ETV
attr interpolationmode  sample-hold
attr source  receptionStateChanged
attr title  "Radio reception state, vector"
vector 180  Net80211test.host[7].wlan[0].radio  receptionState:vector  ETV
attr interpolationmode  sample-hold
attr source  receptionStateChanged
attr title  "Radio reception state, vector"
vector 203  Net80211test.host[8].wlan[0].radio  receptionState:vector  ETV
attr interpolationmode  sample-hold
attr source  receptionStateChanged
attr title  "Radio reception state, vector"
vector 226  Net80211test.host[9].wlan[0].radio  receptionState:vector  ETV
attr interpolationmode  sample-hold
attr source  receptionStateChanged
attr title  "Radio reception state, vector"
vector 249  Net80211test.host[10].wlan[0].radio  receptionState:vector  ETV
attr interpolationmode  sample-hold
attr source  receptionStateChanged
attr title  "Radio reception state, vector"
vector 272  Net80211test.host[11].wlan[0].radio  receptionState:vector  ETV
attr interpolationmode  sample-hold
attr source  receptionStateChanged
attr title  "Radio reception state, vector"
vector 295  Net80211test.host[12].wlan[0].radio  receptionState:vector  ETV
attr interpolationmode  sample-hold
attr source  receptionStateChanged
attr title  "Radio reception state, vector"
vector 318  Net80211test.host[13].wlan[0].radio  receptionState:vector  ETV
attr interpolationmode  sample-hold
attr source  receptionStateChanged
attr title  "Radio reception state, vector"
vector 341  Net80211test.host[14].wlan[0].radio  receptionState:vector  ETV
attr interpolationmode  sample-hold
attr source  receptionStateChanged
attr title  "Radio reception state, vector"
vector 364  Net80211test.host[15].wlan[0].radio  receptionState:vector  ETV
attr interpolationmode  sample-hold
attr source  receptionStateChanged
attr title  "Radio reception state, vector"
vector 387  Net80211test.host[16].wlan[0].radio  receptionState:vector  ETV
attr interpolationmode  sample-hold
attr source  receptionStateChanged
attr title  "Radio reception state, vector"
vector 231  Net80211test.host[10].udpApp[0]  sentPk:vector(packetBytes)  ETV
attr interpolationmode  none
attr source  sentPk
attr title  "packets sent, vector(packetBytes)"
vector 234  Net80211test.host[10].udp  sentPk:vector(packetBytes)  ETV
attr interpolationmode  none
attr source  sentPk
attr title  "packets sent, vector(packetBytes)"
vector 242  Net80211test.host[10].lo0.lo  rcvdPkFromHL:vector(packetBytes)  ETV
attr interpolationmode  none
attr source  packetReceivedFromUpper
attr title  "packets received from higher layer, vector(packetBytes)"
vector 243  Net80211test.host[10].lo0.lo  passedUpPk:vector(packetBytes)  ETV
attr interpolationmode  none
attr source  packetSentToUpper
attr title  "packets passed to higher layer, vector(packetBytes)"
vector 246  Net80211test.host[10].wlan[0].mac  rcvdPkFromHL:vector(packetBytes)  ETV
attr interpolationmode  none
attr source  packetReceivedFromUpper
attr title  "packets received from higher layer, vector(packetBytes)"
vector 235  Net80211test.host[10].udp  rcvdPk:vector(packetBytes)  ETV
attr interpolationmode  none
attr source  rcvdPk
attr title  "packets received, vector(packetBytes)"
vector 236  Net80211test.host[10].udp  passedUpPk:vector(count)  ETV
attr interpolationmode  none
attr title  "packets passed up, vector(count)"
vector 230  Net80211test.host[10].udpApp[0]  rcvdPk:vector(packetBytes)  ETV
attr interpolationmode  none
attr source  rcvdPk
attr title  "packets received, vector(packetBytes)"
vector 232  Net80211test.host[10].udpApp[0]  rcvdPkLifetime:vector  ETV
attr interpolationmode  none
attr source  messageAge(rcvdPk)
attr title  "received packet lifetime, vector"
attr unit  s
vector 245  Net80211test.host[10].wlan[0].mac  sentDownPk:vector(packetBytes)  ETV
attr interpolationmode  none
attr source  packetSentToLower
attr title  "packets sent to lower layer, vector(packetBytes)"
vector 250  Net80211test.host[10].wlan[0].radio  transmissionState:vector  ETV
attr interpolationmode  sample-hold
attr source  transmissionStateChanged
attr title  "Radio transmission state, vector"
vector 362  Net80211test.host[15].wlan[0].mac  rcvdPkFromLL:vector(packetBytes)  ETV
attr interpolationmode  none
attr source  packetReceivedFromLower
attr title  "packets received from lower layer, vector(packetBytes)"
vector 359  Net80211test.host[15].wlan[0].mac  passedUpPk:vector(packetBytes)  ETV
attr interpolationmode  none
attr source  packetSentToUpper
attr title  "packets passed to higher layer, vector(packetBytes)"
vector 350  Net80211test.host[15].udp  rcvdPk:vector(packetBytes)  ETV
attr interpolationmode  none
attr source  rcvdPk
attr title  "packets received, vector(packetBytes)"
vector 352  Net80211test.host[15].udp  droppedPkWrongPort:vector(count)  ETV
attr interpolationmode  none
attr title  "packets dropped (wrong port), vector(count)"
vector 339  Net80211test.host[14].wlan[0].mac  rcvdPkFromLL:vector(packetBytes)  ETV
attr interpolationmode  none
attr source  packetReceivedFromLower
attr title  "packets received from lower layer, vector(packetBytes)"
vector 336  Net80211test.host[14].wlan[0].mac  passedUpPk:vector(packetBytes)  ETV
attr interpolationmode  none
attr source  packetSentToUpper
attr title  "packets passed to higher layer, vector(packetBytes)"
vector 327  Net80211test.host[14].udp  rcvdPk:vector(packetBytes)  ETV
attr interpolationmode  none
attr source  rcvdPk
attr title  "packets received, vector(packetBytes)"
vector 329  Net80211test.host[14].udp  droppedPkWrongPort:vector(count)  ETV
attr interpolationmode  none
attr title  "packets dropped (wrong port), vector(count)"
vector 132  Net80211test.host[5].wlan[0].mac  rcvdPkFromLL:vector(packetBytes)  ETV
attr interpolationmode  none
attr source  packetReceivedFromLower
attr title  "packets received from lower layer, vector(packetBytes)"
vector 129  Net80211test.host[5].wlan[0].mac  passedUpPk:vector(packetBytes)  ETV
attr interpolationmode  none
attr source  packetSentToUpper
attr title  "packets passed to higher layer, vector(packetBytes)"
vector 120  Net80211test.host[5].udp  rcvdPk:vector(packetBytes)  ETV
attr interpolationmode  none
attr source  rcvdPk
attr title  "packets received, vector(packetBytes)"
vector 122  Net80211test.host[5].udp  droppedPkWrongPort:vector(count)  ETV
attr interpolationmode  none
attr title  "packets dropped (wrong port), vector(count)"
vector 270  Net80211test.host[11].wlan[0].mac  rcvdPkFromLL:vector(packetBytes)  ETV
attr interpolationmode  none
attr source  packetReceivedFromLower
attr title  "packets received from lower layer, vector(packetBytes)"
vector 267  Net80211test.host[11].wlan[0].mac  passedUpPk:vector(packetBytes)  ETV
attr interpolationmode  none
attr source  packetSentToUpper
attr title  "packets passed to higher layer, vector(packetBytes)"
vector 258  Net80211test.host[11].udp  rcvdPk:vector(packetBytes)  ETV
attr interpolationmode  none
attr source  rcvdPk
attr title  "packets received, vector(packetBytes)"
vector 260  Net80211test.host[11].udp  droppedPkWrongPort:vector(count)  ETV
attr interpolationmode  none
attr title  "packets dropped (wrong port), vector(count)"
vector 178  Net80211test.host[7].wlan[0].mac  rcvdPkFromLL:vector(packetBytes)  ETV
attr interpolationmode  none
attr source  packetReceivedFromLower
attr title  "packets received from lower layer, vector(packetBytes)"
vector 175  Net80211test.host[7].wlan[0].mac  passedUpPk:vector(packetBytes)  ETV
attr interpolationmode  none
attr source  packetSentToUpper
attr title  "packets passed to higher layer, vector(packetBytes)"
vector 166  Net80211test.host[7].udp  rcvdPk:vector(packetBytes)  ETV
attr interpolationmode  none
attr source  rcvdPk
attr title  "packets received, vector(packetBytes)"
vector 168  Net80211test.host[7].udp  droppedPkWrongPort:vector(count)  ETV
attr interpolationmode  none
attr title  "packets dropped (wrong port), vector(count)"
vector 155  Net80211test.host[6].wlan[0].mac  rcvdPkFromLL:vector(packetBytes)  ETV
attr interpolationmode  none
attr source  packetReceivedFromLower
attr title  "packets received from lower layer, vector(packetBytes)"
vector 152  Net80211test.host[6].wlan[0].mac  passedUpPk:vector(packetBytes)  ETV
attr interpolationmode  none
attr source  packetSentToUpper
attr title  "packets passed to higher layer, vector(packetBytes)"
vector 143  Net80211test.host[6].udp  rcvdPk:vector(packetBytes)  ETV
attr interpolationmode  none
attr source  rcvdPk
attr title  "packets received, vector(packetBytes)"
vector 145  Net80211test.host[6].udp  droppedPkWrongPort:vector(count)  ETV
attr interpolationmode  none
attr title  "packets dropped (wrong port), vector(count)"
vector 17  Net80211test.host[0].wlan[0].mac  rcvdPkFromLL:vector(packetBytes)  ETV
attr interpolationmode  none
attr source  packetReceivedFromLower
attr title  "packets received from lower layer, vector(packetBytes)"
vector 14  Net80211test.host[0].wlan[0].mac  passedUpPk:vector(packetBytes)  ETV
attr interpolationmode  none
attr source  packetSentToUpper
attr title  "packets passed to higher layer, vector(packetBytes)"
vector 5  Net80211test.host[0].udp  rcvdPk:vector(packetBytes)  ETV
attr interpolationmode  none
attr source  rcvdPk
attr title  "packets received, vector(packetBytes)"
vector 7  Net80211test.host[0].udp  droppedPkWrongPort:vector(count)  ETV
attr interpolationmode  none
attr title  "packets dropped (wrong port), vector(count)"
vector 224  Net80211test.host[9].wlan[0].mac  rcvdPkFromLL:vector(packetBytes)  ETV
attr interpolationmode  none
attr source  packetReceivedFromLower
attr title  "packets received from lower layer, vector(packetBytes)"
vector 221  Net80211test.host[9].wlan[0].mac  passedUpPk:vector(packetBytes)  ETV
attr interpolationmode  none
attr source  packetSentToUpper
attr title  "packets passed to higher layer, vector(packetBytes)"
vector 212  Net80211test.host[9].udp  rcvdPk:vector(packetBytes)  ETV
attr interpolationmode  none
attr source  rcvdPk
attr title  "packets received, vector(packetBytes)"
vector 214  Net80211test.host[9].udp  droppedPkWrongPort:vector(count)  ETV
attr interpolationmode  none
attr title  "packets dropped (wrong port), vector(count)"
vector 63  Net80211test.host[2].wlan[0].mac  rcvdPkFromLL:vector(packetBytes)  ETV
attr interpolationmode  none
attr source  packetReceivedFromLower
attr title  "packets received from lower layer, vector(packetBytes)"
vector 60  Net80211test.host[2].wlan[0].mac  passedUpPk:vector(packetBytes)  ETV
attr interpolationmode  none
attr source  packetSentToUpper
attr title  "packets passed to higher layer, vector(packetBytes)"
vector 51  Net80211test.host[2].udp  rcvdPk:vector(packetBytes)  ETV
attr interpolationmode  none
attr source  rcvdPk
attr title  "packets received, vector(packetBytes)"
vector 53  Net80211test.host[2].udp  droppedPkWrongPort:vector(count)  ETV
attr interpolationmode  none
attr title  "packets dropped (wrong port), vector(count)"
vector 201  Net80211test.host[8].wlan[0].mac  rcvdPkFromLL:vector(packetBytes)  ETV
attr interpolationmode  none
attr source  packetReceivedFromLower
attr title  "packets received from lower layer, vector(packetBytes)"
vector 198  Net80211test.host[8].wlan[0].mac  passedUpPk:vector(packetBytes)  ETV
attr interpolationmode  none
attr source  packetSentToUpper
attr title  "packets passed to higher layer, vector(packetBytes)"
vector 189  Net80211test.host[8].udp  rcvdPk:vector(packetBytes)  ETV
attr interpolationmode  none
attr source  rcvdPk
attr title  "packets received, vector(packetBytes)"
vector 191  Net80211test.host[8].udp  droppedPkWrongPort:vector(count)  ETV
attr interpolationmode  none
attr title  "packets dropped (wrong port), vector(count)"
vector 293  Net80211test.host[12].wlan[0].mac  rcvdPkFromLL:vector(packetBytes)  ETV
attr interpolationmode  none
attr source  packetReceivedFromLower
attr title  "packets received from lower layer, vector(packetBytes)"
vector 290  Net80211test.host[12].wlan[0].mac  passedUpPk:vector(packetBytes)  ETV
attr interpolationmode  none
attr source  packetSentToUpper
attr title  "packets passed to higher layer, vector(packetBytes)"
vector 281  Net80211test.host[12].udp  rcvdPk:vector(packetBytes)  ETV
attr interpolationmode  none
attr source  rcvdPk
attr title  "packets received, vector(packetBytes)"
vector 283  Net80211test.host[12].udp  droppedPkWrongPort:vector(count)  ETV
attr interpolationmode  none
attr title  "packets dropped (wrong port), vector(count)"
vector 316  Net80211test.host[13].wlan[0].mac  rcvdPkFromLL:vector(packetBytes)  ETV
attr interpolationmode  none
attr source  packetReceivedFromLower
attr title  "packets received from lower layer, vector(packetBytes)"
vector 313  Net80211test.host[13].wlan[0].mac  passedUpPk:vector(packetBytes)  ETV
attr interpolationmode  none
attr source  packetSentToUpper
attr title  "packets passed to higher layer, vector(packetBytes)"
vector 304  Net80211test.host[13].udp  rcvdPk:vector(packetBytes)  ETV
attr interpolationmode  none
attr source  rcvdPk
attr title  "packets received, vector(packetBytes)"
vector 306  Net80211test.host[13].udp  droppedPkWrongPort:vector(count)  ETV
attr interpolationmode  none
attr title  "packets dropped (wrong port), vector(count)"
vector 109  Net80211test.host[4].wlan[0].mac  rcvdPkFromLL:vector(packetBytes)  ETV
attr interpolationmode  none
attr source  packetReceivedFromLower
attr title  "packets received from lower layer, vector(packetBytes)"
vector 106  Net80211test.host[4].wlan[0].mac  passedUpPk:vector(packetBytes)  ETV
attr interpolationmode  none
attr source  packetSentToUpper
attr title  "packets passed to higher layer, vector(packetBytes)"
vector 97  Net80211test.host[4].udp  rcvdPk:vector(packetBytes)  ETV
attr interpolationmode  none
attr source  rcvdPk
attr title  "packets received, vector(packetBytes)"
vector 99  Net80211test.host[4].udp  droppedPkWrongPort:vector(count)  ETV
attr interpolationmode  none
attr title  "packets dropped (wrong port), vector(count)"
vector 40  Net80211test.host[1].wlan[0].mac  rcvdPkFromLL:vector(packetBytes)  ETV
attr interpolationmode  none
attr source  packetReceivedFromLower
attr title  "packets received from lower layer, vector(packetBytes)"
vector 37  Net80211test.host[1].wlan[0].mac  passedUpPk:vector(packetBytes)  ETV
attr interpolationmode  none
attr source  packetSentToUpper
attr title  "packets passed to higher layer, vector(packetBytes)"
vector 28  Net80211test.host[1].udp  rcvdPk:vector(packetBytes)  ETV
attr interpolationmode  none
attr source  rcvdPk
attr title  "packets received, vector(packetBytes)"
vector 30  Net80211test.host[1].udp  droppedPkWrongPort:vector(count)  ETV
attr interpolationmode  none
attr title  "packets dropped (wrong port), vector(count)"
vector 385  Net80211test.host[16].wlan[0].mac  rcvdPkFromLL:vector(packetBytes)  ETV
attr interpolationmode  none
attr source  packetReceivedFromLower
attr title  "packets received from lower layer, vector(packetBytes)"
vector 382  Net80211test.host[16].wlan[0].mac  passedUpPk:vector(packetBytes)  ETV
attr interpolationmode  none
attr source  packetSentToUpper
attr title  "packets passed to higher layer, vector(packetBytes)"
vector 373  Net80211test.host[16].udp  rcvdPk:vector(packetBytes)  ETV
attr interpolationmode  none
attr source  rcvdPk
attr title  "packets received, vector(packetBytes)"
vector 375  Net80211test.host[16].udp  droppedPkWrongPort:vector(count)  ETV
attr interpolationmode  none
attr title  "packets dropped (wrong port), vector(count)"
vector 86  Net80211test.host[3].wlan[0].mac  rcvdPkFromLL:vector(packetBytes)  ETV
attr interpolationmode  none
attr source  packetReceivedFromLower
attr title  "packets received from lower layer, vector(packetBytes)"
vector 83  Net80211test.host[3].wlan[0].mac  passedUpPk:vector(packetBytes)  ETV
attr interpolationmode  none
attr source  packetSentToUpper
attr title  "packets passed to higher layer, vector(packetBytes)"
vector 74  Net80211test.host[3].udp  rcvdPk:vector(packetBytes)  ETV
attr interpolationmode  none
attr source  rcvdPk
attr title  "packets received, vector(packetBytes)"
vector 76  Net80211test.host[3].udp  droppedPkWrongPort:vector(count)  ETV
attr interpolationmode  none
attr title  "packets dropped (wrong port), vector(count)"
vector 254  Net80211test.host[11].udpApp[0]  sentPk:vector(packetBytes)  ETV
attr interpolationmode  none
attr source  sentPk
attr title  "packets sent, vector(packetBytes)"
vector 257  Net80211test.host[11].udp  sentPk:vector(packetBytes)  ETV
attr interpolationmode  none
attr source  sentPk
attr title  "packets sent, vector(packetBytes)"
vector 265  Net80211test.host[11].lo0.lo  rcvdPkFromHL:vector(packetBytes)  ETV
attr interpolationmode  none
attr source  packetReceivedFromUpper
attr title  "packets received from higher layer, vector(packetBytes)"
vector 266  Net80211test.host[11].lo0.lo  passedUpPk:vector(packetBytes)  ETV
attr interpolationmode  none
attr source  packetSentToUpper
attr title  "packets passed to higher layer, vector(packetBytes)"
vector 269  Net80211test.host[11].wlan[0].mac  rcvdPkFromHL:vector(packetBytes)  ETV
attr interpolationmode  none
attr source  packetReceivedFromUpper
attr title  "packets received from higher layer, vector(packetBytes)"
vector 259  Net80211test.host[11].udp  passedUpPk:vector(count)  ETV
attr interpolationmode  none
attr title  "packets passed up, vector(count)"
vector 253  Net80211test.host[11].udpApp[0]  rcvdPk:vector(packetBytes)  ETV
attr interpolationmode  none
attr source  rcvdPk
attr title  "packets received, vector(packetBytes)"
vector 255  Net80211test.host[11].udpApp[0]  rcvdPkLifetime:vector  ETV
attr interpolationmode  none
attr source  messageAge(rcvdPk)
attr title  "received packet lifetime, vector"
attr unit  s
vector 268  Net80211test.host[11].wlan[0].mac  sentDownPk:vector(packetBytes)  ETV
attr interpolationmode  none
attr source  packetSentToLower
attr title  "packets sent to lower layer, vector(packetBytes)"
vector 273  Net80211test.host[11].wlan[0].radio  transmissionState:vector  ETV
attr interpolationmode  sample-hold
attr source  transmissionStateChanged
attr title  "Radio transmission state, vector"
vector 247  Net80211test.host[10].wlan[0].mac  rcvdPkFromLL:vector(packetBytes)  ETV
attr interpolationmode  none
attr source  packetReceivedFromLower
attr title  "packets received from lower layer, vector(packetBytes)"
vector 244  Net80211test.host[10].wlan[0].mac  passedUpPk:vector(packetBytes)  ETV
attr interpolationmode  none
attr source  packetSentToUpper
attr title  "packets passed to higher layer, vector(packetBytes)"
vector 1  Net80211test.host[0].udpApp[0]  sentPk:vector(packetBytes)  ETV
attr interpolationmode  none
attr source  sentPk
attr title  "packets sent, vector(packetBytes)"
vector 4  Net80211test.host[0].udp  sentPk:vector(packetBytes)  ETV
attr interpolationmode  none
attr source  sentPk
attr title  "packets sent, vector(packetBytes)"
vector 12  Net80211test.host[0].lo0.lo  rcvdPkFromHL:vector(packetBytes)  ETV
attr interpolationmode  none
attr source  packetReceivedFromUpper
attr title  "packets received from higher layer, vector(packetBytes)"
vector 13  Net80211test.host[0].lo0.lo  passedUpPk:vector(packetBytes)  ETV
attr interpolationmode  none
attr source  packetSentToUpper
attr title  "packets passed to higher layer, vector(packetBytes)"
vector 16  Net80211test.host[0].wlan[0].mac  rcvdPkFromHL:vector(packetBytes)  ETV
attr interpolationmode  none
attr source  packetReceivedFromUpper
attr title  "packets received from higher layer, vector(packetBytes)"
vector 6  Net80211test.host[0].udp  passedUpPk:vector(count)  ETV
attr interpolationmode  none
attr title  "packets passed up, vector(count)"
vector 0  Net80211test.host[0].udpApp[0]  rcvdPk:vector(packetBytes)  ETV
attr interpolationmode  none
attr source  rcvdPk
attr title  "packets received, vector(packetBytes)"
vector 2  Net80211test.host[0].udpApp[0]  rcvdPkLifetime:vector  ETV
attr interpolationmode  none
attr source  messageAge(rcvdPk)
attr title  "received packet lifetime, vector"
attr unit  s
vector 15  Net80211test.host[0].wlan[0].mac  sentDownPk:vector(packetBytes)  ETV
attr interpolationmode  none
attr source  packetSentToLower
attr title  "packets sent to lower layer, vector(packetBytes)"
vector 20  Net80211test.host[0].wlan[0].radio  transmissionState:vector  ETV
attr interpolationmode  sample-hold
attr source  transmissionStateChanged
attr title  "Radio transmission state, vector"
vector 139  Net80211test.host[6].udpApp[0]  sentPk:vector(packetBytes)  ETV
attr interpolationmode  none
attr source  sentPk
attr title  "packets sent, vector(packetBytes)"
vector 142  Net80211test.host[6].udp  sentPk:vector(packetBytes)  ETV
attr interpolationmode  none
attr source  sentPk
attr title  "packets sent, vector(packetBytes)"
vector 150  Net80211test.host[6].lo0.lo  rcvdPkFromHL:vector(packetBytes)  ETV
attr interpolationmode  none
attr source  packetReceivedFromUpper
attr title  "packets received from higher layer, vector(packetBytes)"
vector 151  Net80211test.host[6].lo0.lo  passedUpPk:vector(packetBytes)  ETV
attr interpolationmode  none
attr source  packetSentToUpper
attr title  "packets passed to higher layer, vector(packetBytes)"
vector 154  Net80211test.host[6].wlan[0].mac  rcvdPkFromHL:vector(packetBytes)  ETV
attr interpolationmode  none
attr source  packetReceivedFromUpper
attr title  "packets received from higher layer, vector(packetBytes)"
vector 144  Net80211test.host[6].udp  passedUpPk:vector(count)  ETV
attr interpolationmode  none
attr title  "packets passed up, vector(count)"
vector 138  Net80211test.host[6].udpApp[0]  rcvdPk:vector(packetBytes)  ETV
attr interpolationmode  none
attr source  rcvdPk
attr title  "packets received, vector(packetBytes)"
vector 140  Net80211test.host[6].udpApp[0]  rcvdPkLifetime:vector  ETV
attr interpolationmode  none
attr source  messageAge(rcvdPk)
attr title  "received packet lifetime, vector"
attr unit  s
vector 153  Net80211test.host[6].wlan[0].mac  sentDownPk:vector(packetBytes)  ETV
attr interpolationmode  none
attr source  packetSentToLower
attr title  "packets sent to lower layer, vector(packetBytes)"
vector 158  Net80211test.host[6].wlan[0].radio  transmissionState:vector  ETV
attr interpolationmode  sample-hold
attr source  transmissionStateChanged
attr title  "Radio transmission state, vector"
vector 47  Net80211test.host[2].udpApp[0]  sentPk:vector(packetBytes)  ETV
attr interpolationmode  none
attr source  sentPk
attr title  "packets sent, vector(packetBytes)"
vector 50  Net80211test.host[2].udp  sentPk:vector(packetBytes)  ETV
attr interpolationmode  none
attr source  sentPk
attr title  "packets sent, vector(packetBytes)"
vector 58  Net80211test.host[2].lo0.lo  rcvdPkFromHL:vector(packetBytes)  ETV
attr interpolationmode  none
attr source  packetReceivedFromUpper
attr title  "packets received from higher layer, vector(packetBytes)"
vector 59  Net80211test.host[2].lo0.lo  passedUpPk:vector(packetBytes)  ETV
attr interpolationmode  none
attr source  packetSentToUpper
attr title  "packets passed to higher layer, vector(packetBytes)"
vector 62  Net80211test.host[2].wlan[0].mac  rcvdPkFromHL:vector(packetBytes)  ETV
attr interpolationmode  none
attr source  packetReceivedFromUpper
attr title  "packets received from higher layer, vector(packetBytes)"
vector 52  Net80211test.host[2].udp  passedUpPk:vector(count)  ETV
attr interpolationmode  none
attr title  "packets passed up, vector(count)"
vector 46  Net80211test.host[2].udpApp[0]  rcvdPk:vector(packetBytes)  ETV
attr interpolationmode  none
attr source  rcvdPk
attr title  "packets received, vector(packetBytes)"
vector 48  Net80211test.host[2].udpApp[0]  rcvdPkLifetime:vector  ETV
attr interpolationmode  none
attr source  messageAge(rcvdPk)
attr title  "received packet lifetime, vector"
attr unit  s
vector 61  Net80211test.host[2].wlan[0].mac  sentDownPk:vector(packetBytes)  ETV
attr interpolationmode  none
attr source  packetSentToLower
attr title  "packets sent to lower layer, vector(packetBytes)"
vector 66  Net80211test.host[2].wlan[0].radio  transmissionState:vector  ETV
attr interpolationmode  sample-hold
attr source  transmissionStateChanged
attr title  "Radio transmission state, vector"
vector 300  Net80211test.host[13].udpApp[0]  sentPk:vector(packetBytes)  ETV
attr interpolationmode  none
attr source  sentPk
attr title  "packets sent, vector(packetBytes)"
vector 303  Net80211test.host[13].udp  sentPk:vector(packetBytes)  ETV
attr interpolationmode  none
attr source  sentPk
attr title  "packets sent, vector(packetBytes)"
vector 311  Net80211test.host[13].lo0.lo  rcvdPkFromHL:vector(packetBytes)  ETV
attr interpolationmode  none
attr source  packetReceivedFromUpper
attr title  "packets received from higher layer, vector(packetBytes)"
vector 312  Net80211test.host[13].lo0.lo  passedUpPk:vector(packetBytes)  ETV
attr interpolationmode  none
attr source  packetSentToUpper
attr title  "packets passed to higher layer, vector(packetBytes)"
vector 315  Net80211test.host[13].wlan[0].mac  rcvdPkFromHL:vector(packetBytes)  ETV
attr interpolationmode  none
attr source  packetReceivedFromUpper
attr title  "packets received from higher layer, vector(packetBytes)"
vector 305  Net80211test.host[13].udp  passedUpPk:vector(count)  ETV
attr interpolationmode  none
attr title  "packets passed up, vector(count)"
vector 299  Net80211test.host[13].udpApp[0]  rcvdPk:vector(packetBytes)  ETV
attr interpolationmode  none
attr source  rcvdPk
attr title  "packets received, vector(packetBytes)"
vector 301  Net80211test.host[13].udpApp[0]  rcvdPkLifetime:vector  ETV
attr interpolationmode  none
attr source  messageAge(rcvdPk)
attr title  "received packet lifetime, vector"
attr unit  s
vector 314  Net80211test.host[13].wlan[0].mac  sentDownPk:vector(packetBytes)  ETV
attr interpolationmode  none
attr source  packetSentToLower
attr title  "packets sent to lower layer, vector(packetBytes)"
vector 319  Net80211test.host[13].wlan[0].radio  transmissionState:vector  ETV
attr interpolationmode  sample-hold
attr source  transmissionStateChanged
attr title  "Radio transmission state, vector"
vector 93  Net80211test.host[4].udpApp[0]  sentPk:vector(packetBytes)  ETV
attr interpolationmode  none
attr source  sentPk
attr title  "packets sent, vector(packetBytes)"
vector 96  Net80211test.host[4].udp  sentPk:vector(packetBytes)  ETV
attr interpolationmode  none
attr source  sentPk
attr title  "packets sent, vector(packetBytes)"
vector 104  Net80211test.host[4].lo0.lo  rcvdPkFromHL:vector(packetBytes)  ETV
attr interpolationmode  none
attr source  packetReceivedFromUpper
attr title  "packets received from higher layer, vector(packetBytes)"
vector 105  Net80211test.host[4].lo0.lo  passedUpPk:vector(packetBytes)  ETV
attr interpolationmode  none
attr source  packetSentToUpper
attr title  "packets passed to higher layer, vector(packetBytes)"
vector 108  Net80211test.host[4].wlan[0].mac  rcvdPkFromHL:vector(packetBytes)  ETV
attr interpolationmode  none
attr source  packetReceivedFromUpper
attr title  "packets received from higher layer, vector(packetBytes)"
vector 98  Net80211test.host[4].udp  passedUpPk:vector(count)  ETV
attr interpolationmode  none
attr title  "packets passed up, vector(count)"
vector 92  Net80211test.host[4].udpApp[0]  rcvdPk:vector(packetBytes)  ETV
attr interpolationmode  none
attr source  rcvdPk
attr title  "packets received, vector(packetBytes)"
vector 94  Net80211test.host[4].udpApp[0]  rcvdPkLifetime:vector  ETV
attr interpolationmode  none
attr source  messageAge(rcvdPk)
attr title  "received packet lifetime, vector"
attr unit  s
vector 107  Net80211test.host[4].wlan[0].mac  sentDownPk:vector(packetBytes)  ETV
attr interpolationmode  none
attr source  packetSentToLower
attr title  "packets sent to lower layer, vector(packetBytes)"
vector 112  Net80211test.host[4].wlan[0].radio  transmissionState:vector  ETV
attr interpolationmode  sample-hold
attr source  transmissionStateChanged
attr title  "Radio transmission state, vector"
vector 70  Net80211test.host[3].udpApp[0]  sentPk:vector(packetBytes)  ETV
attr interpolationmode  none
attr source  sentPk
attr title  "packets sent, vector(packetBytes)"
vector 73  Net80211test.host[3].udp  sentPk:vector(packetBytes)  ETV
attr interpolationmode  none
attr source  sentPk
attr title  "packets sent, vector(packetBytes)"
vector 81  Net80211test.host[3].lo0.lo  rcvdPkFromHL:vector(packetBytes)  ETV
attr interpolationmode  none
attr source  packetReceivedFromUpper
attr title  "packets received from higher layer, vector(packetBytes)"
vector 82  Net80211test.host[3].lo0.lo  passedUpPk:vector(packetBytes)  ETV
attr interpolationmode  none
attr source  packetSentToUpper
attr title  "packets passed to higher layer, vector(packetBytes)"
vector 85  Net80211test.host[3].wlan[0].mac  rcvdPkFromHL:vector(packetBytes)  ETV
attr interpolationmode  none
attr source  packetReceivedFromUpper
attr title  "packets received from higher layer, vector(packetBytes)"
vector 75  Net80211test.host[3].udp  passedUpPk:vector(count)  ETV
attr interpolationmode  none
attr title  "packets passed up, vector(count)"
vector 69  Net80211test.host[3].udpApp[0]  rcvdPk:vector(packetBytes)  ETV
attr interpolationmode  none
attr source  rcvdPk
attr title  "packets received, vector(packetBytes)"
vector 71  Net80211test.host[3].udpApp[0]  rcvdPkLifetime:vector  ETV
attr interpolationmode  none
attr source  messageAge(rcvdPk)
attr title  "received packet lifetime, vector"
attr unit  s
vector 84  Net80211test.host[3].wlan[0].mac  sentDownPk:vector(packetBytes)  ETV
attr interpolationmode  none
attr source  packetSentToLower
attr title  "packets sent to lower layer, vector(packetBytes)"
vector 89  Net80211test.host[3].wlan[0].radio  transmissionState:vector  ETV
attr interpolationmode  sample-hold
attr source  transmissionStateChanged
attr title  "Radio transmission state, vector"
vector 162  Net80211test.host[7].udpApp[0]  sentPk:vector(packetBytes)  ETV
attr interpolationmode  none
attr source  sentPk
attr title  "packets sent, vector(packetBytes)"
vector 165  Net80211test.host[7].udp  sentPk:vector(packetBytes)  ETV
attr interpolationmode  none
attr source  sentPk
attr title  "packets sent, vector(packetBytes)"
vector 173  Net80211test.host[7].lo0.lo  rcvdPkFromHL:vector(packetBytes)  ETV
attr interpolationmode  none
attr source  packetReceivedFromUpper
attr title  "packets received from higher layer, vector(packetBytes)"
vector 174  Net80211test.host[7].lo0.lo  passedUpPk:vector(packetBytes)  ETV
attr interpolationmode  none
attr source  packetSentToUpper
attr title  "packets passed to higher layer, vector(packetBytes)"
vector 177  Net80211test.host[7].wlan[0].mac  rcvdPkFromHL:vector(packetBytes)  ETV
attr interpolationmode  none
attr source  packetReceivedFromUpper
attr title  "packets received from higher layer, vector(packetBytes)"
vector 167  Net80211test.host[7].udp  passedUpPk:vector(count)  ETV
attr interpolationmode  none
attr title  "packets passed up, vector(count)"
vector 161  Net80211test.host[7].udpApp[0]  rcvdPk:vector(packetBytes)  ETV
attr interpolationmode  none
attr source  rcvdPk
attr title  "packets received, vector(packetBytes)"
vector 163  Net80211test.host[7].udpApp[0]  rcvdPkLifetime:vector  ETV
attr interpolationmode  none
attr source  messageAge(rcvdPk)
attr title  "received packet lifetime, vector"
attr unit  s
vector 176  Net80211test.host[7].wlan[0].mac  sentDownPk:vector(packetBytes)  ETV
attr interpolationmode  none
attr source  packetSentToLower
attr title  "packets sent to lower layer, vector(packetBytes)"
vector 181  Net80211test.host[7].wlan[0].radio  transmissionState:vector  ETV
attr interpolationmode  sample-hold
attr source  transmissionStateChanged
attr title  "Radio transmission state, vector"
vector 185  Net80211test.host[8].udpApp[0]  sentPk:vector(packetBytes)  ETV
attr interpolationmode  none
attr source  sentPk
attr title  "packets sent, vector(packetBytes)"
vector 188  Net80211test.host[8].udp  sentPk:vector(packetBytes)  ETV
attr interpolationmode  none
attr source  sentPk
attr title  "packets sent, vector(packetBytes)"
vector 196  Net80211test.host[8].lo0.lo  rcvdPkFromHL:vector(packetBytes)  ETV
attr interpolationmode  none
attr source  packetReceivedFromUpper
attr title  "packets received from higher layer, vector(packetBytes)"
vector 197  Net80211test.host[8].lo0.lo  passedUpPk:vector(packetBytes)  ETV
attr interpolationmode  none
attr source  packetSentToUpper
attr title  "packets passed to higher layer, vector(packetBytes)"
vector 200  Net80211test.host[8].wlan[0].mac  rcvdPkFromHL:vector(packetBytes)  ETV
attr interpolationmode  none
attr source  packetReceivedFromUpper
attr title  "packets received from higher layer, vector(packetBytes)"
vector 190  Net80211test.host[8].udp  passedUpPk:vector(count)  ETV
attr interpolationmode  none
attr title  "packets passed up, vector(count)"
vector 184  Net80211test.host[8].udpApp[0]  rcvdPk:vector(packetBytes)  ETV
attr interpolationmode  none
attr source  rcvdPk
attr title  "packets received, vector(packetBytes)"
vector 186  Net80211test.host[8].udpApp[0]  rcvdPkLifetime:vector  ETV
attr interpolationmode  none
attr source  messageAge(rcvdPk)
attr title  "received packet lifetime, vector"
attr unit  s
vector 199  Net80211test.host[8].wlan[0].mac  sentDownPk:vector(packetBytes)  ETV
attr interpolationmode  none
attr source  packetSentToLower
attr title  "packets sent to lower layer, vector(packetBytes)"
vector 204  Net80211test.host[8].wlan[0].radio  transmissionState:vector  ETV
attr interpolationmode  sample-hold
attr source  transmissionStateChanged
attr title  "Radio transmission state, vector"
vector 277  Net80211test.host[12].udpApp[0]  sentPk:vector(packetBytes)  ETV
attr interpolationmode  none
attr source  sentPk
attr title  "packets sent, vector(packetBytes)"
vector 280  Net80211test.host[12].udp  sentPk:vector(packetBytes)  ETV
attr interpolationmode  none
attr source  sentPk
attr title  "packets sent, vector(packetBytes)"
vector 288  Net80211test.host[12].lo0.lo  rcvdPkFromHL:vector(packetBytes)  ETV
attr interpolationmode  none
attr source  packetReceivedFromUpper
attr title  "packets received from higher layer, vector(packetBytes)"
vector 289  Net80211test.host[12].lo0.lo  passedUpPk:vector(packetBytes)  ETV
attr interpolationmode  none
attr source  packetSentToUpper
attr title  "packets passed to higher layer, vector(packetBytes)"
vector 292  Net80211test.host[12].wlan[0].mac  rcvdPkFromHL:vector(packetBytes)  ETV
attr interpolationmode  none
attr source  packetReceivedFromUpper
attr title  "packets received from higher layer, vector(packetBytes)"
vector 282  Net80211test.host[12].udp  passedUpPk:vector(count)  ETV
attr interpolationmode  none
attr title  "packets passed up, vector(count)"
vector 276  Net80211test.host[12].udpApp[0]  rcvdPk:vector(packetBytes)  ETV
attr interpolationmode  none
attr source  rcvdPk
attr title  "packets received, vector(packetBytes)"
vector 278  Net80211test.host[12].udpApp[0]  rcvdPkLifetime:vector  ETV
attr interpolationmode  none
attr source  messageAge(rcvdPk)
attr title  "received packet lifetime, vector"
attr unit  s
vector 291  Net80211test.host[12].wlan[0].mac  sentDownPk:vector(packetBytes)  ETV
attr interpolationmode  none
attr source  packetSentToLower
attr title  "packets sent to lower layer, vector(packetBytes)"
vector 296  Net80211test.host[12].wlan[0].radio  transmissionState:vector  ETV
attr interpolationmode  sample-hold
attr source  transmissionStateChanged
attr title  "Radio transmission state, vector"
vector 369  Net80211test.host[16].udpApp[0]  sentPk:vector(packetBytes)  ETV
attr interpolationmode  none
attr source  sentPk
attr title  "packets sent, vector(packetBytes)"
vector 372  Net80211test.host[16].udp  sentPk:vector(packetBytes)  ETV
attr interpolationmode  none
attr source  sentPk
attr title  "packets sent, vector(packetBytes)"
vector 380  Net80211test.host[16].lo0.lo  rcvdPkFromHL:vector(packetBytes)  ETV
attr interpolationmode  none
attr source  packetReceivedFromUpper
attr title  "packets received from higher layer, vector(packetBytes)"
vector 381  Net80211test.host[16].lo0.lo  passedUpPk:vector(packetBytes)  ETV
attr interpolationmode  none
attr source  packetSentToUpper
attr title  "packets passed to higher layer, vector(packetBytes)"
vector 384  Net80211test.host[16].wlan[0].mac  rcvdPkFromHL:vector(packetBytes)  ETV
attr interpolationmode  none
attr source  packetReceivedFromUpper
attr title  "packets received from higher layer, vector(packetBytes)"
vector 374  Net80211test.host[16].udp  passedUpPk:vector(count)  ETV
attr interpolationmode  none
attr title  "packets passed up, vector(count)"
vector 368  Net80211test.host[16].udpApp[0]  rcvdPk:vector(packetBytes)  ETV
attr interpolationmode  none
attr source  rcvdPk
attr title  "packets received, vector(packetBytes)"
vector 370  Net80211test.host[16].udpApp[0]  rcvdPkLifetime:vector  ETV
attr interpolationmode  none
attr source  messageAge(rcvdPk)
attr title  "received packet lifetime, vector"
attr unit  s
vector 383  Net80211test.host[16].wlan[0].mac  sentDownPk:vector(packetBytes)  ETV
attr interpolationmode  none
attr source  packetSentToLower
attr title  "packets sent to lower layer, vector(packetBytes)"
vector 388  Net80211test.host[16].wlan[0].radio  transmissionState:vector  ETV
attr interpolationmode  sample-hold
attr source  transmissionStateChanged
attr title  "Radio transmission state, vector"
vector 346  Net80211test.host[15].udpApp[0]  sentPk:vector(packetBytes)  ETV
attr interpolationmode  none
attr source  sentPk
attr title  "packets sent, vector(packetBytes)"
vector 349  Net80211test.host[15].udp  sentPk:vector(packetBytes)  ETV
attr interpolationmode  none
attr source  sentPk
attr title  "packets sent, vector(packetBytes)"
vector 357  Net80211test.host[15].lo0.lo  rcvdPkFromHL:vector(packetBytes)  ETV
attr interpolationmode  none
attr source  packetReceivedFromUpper
attr title  "packets received from higher layer, vector(packetBytes)"
vector 358  Net80211test.host[15].lo0.lo  passedUpPk:vector(packetBytes)  ETV
attr interpolationmode  none
attr source  packetSentToUpper
attr title  "packets passed to higher layer, vector(packetBytes)"
vector 361  Net80211test.host[15].wlan[0].mac  rcvdPkFromHL:vector(packetBytes)  ETV
attr interpolationmode  none
attr source  packetReceivedFromUpper
attr title  "packets received from higher layer, vector(packetBytes)"
vector 351  Net80211test.host[15].udp  passedUpPk:vector(count)  ETV
attr interpolationmode  none
attr title  "packets passed up, vector(count)"
vector 345  Net80211test.host[15].udpApp[0]  rcvdPk:vector(packetBytes)  ETV
attr interpolationmode  none
attr source  rcvdPk
attr title  "packets received, vector(packetBytes)"
vector 347  Net80211test.host[15].udpApp[0]  rcvdPkLifetime:vector  ETV
attr interpolationmode  none
attr source  messageAge(rcvdPk)
attr title  "received packet lifetime, vector"
attr unit  s
vector 360  Net80211test.host[15].wlan[0].mac  sentDownPk:vector(packetBytes)  ETV
attr interpolationmode  none
attr source  packetSentToLower
attr title  "packets sent to lower layer, vector(packetBytes)"
vector 365  Net80211test.host[15].wlan[0].radio  transmissionState:vector  ETV
attr interpolationmode  sample-hold
attr source  transmissionStateChanged
attr title  "Radio transmission state, vector"
vector 116  Net80211test.host[5].udpApp[0]  sentPk:vector(packetBytes)  ETV
attr interpolationmode  none
attr source  sentPk
attr title  "packets sent, vector(packetBytes)"
vector 119  Net80211test.host[5].udp  sentPk:vector(packetBytes)  ETV
attr interpolationmode  none
attr source  sentPk
attr title  "packets sent, vector(packetBytes)"
vector 127  Net80211test.host[5].lo0.lo  rcvdPkFromHL:vector(packetBytes)  ETV
attr interpolationmode  none
attr source  packetReceivedFromUpper
attr title  "packets received from higher layer, vector(packetBytes)"
vector 128  Net80211test.host[5].lo0.lo  passedUpPk:vector(packetBytes)  ETV
attr interpolationmode  none
attr source  packetSentToUpper
attr title  "packets passed to higher layer, vector(packetBytes)"
vector 131  Net80211test.host[5].wlan[0].mac  rcvdPkFromHL:vector(packetBytes)  ETV
attr interpolationmode  none
attr source  packetReceivedFromUpper
attr title  "packets received from higher layer, vector(packetBytes)"
vector 121  Net80211test.host[5].udp  passedUpPk:vector(count)  ETV
attr interpolationmode  none
attr title  "packets passed up, vector(count)"
vector 115  Net80211test.host[5].udpApp[0]  rcvdPk:vector(packetBytes)  ETV
attr interpolationmode  none
attr source  rcvdPk
attr title  "packets received, vector(packetBytes)"
vector 117  Net80211test.host[5].udpApp[0]  rcvdPkLifetime:vector  ETV
attr interpolationmode  none
attr source  messageAge(rcvdPk)
attr title  "received packet lifetime, vector"
attr unit  s
vector 130  Net80211test.host[5].wlan[0].mac  sentDownPk:vector(packetBytes)  ETV
attr interpolationmode  none
attr source  packetSentToLower
attr title  "packets sent to lower layer, vector(packetBytes)"
vector 135  Net80211test.host[5].wlan[0].radio  transmissionState:vector  ETV
attr interpolationmode  sample-hold
attr source  transmissionStateChanged
attr title  "Radio transmission state, vector"
vector 24  Net80211test.host[1].udpApp[0]  sentPk:vector(packetBytes)  ETV
attr interpolationmode  none
attr source  sentPk
attr title  "packets sent, vector(packetBytes)"
vector 27  Net80211test.host[1].udp  sentPk:vector(packetBytes)  ETV
attr interpolationmode  none
attr source  sentPk
attr title  "packets sent, vector(packetBytes)"
vector 35  Net80211test.host[1].lo0.lo  rcvdPkFromHL:vector(packetBytes)  ETV
attr interpolationmode  none
attr source  packetReceivedFromUpper
attr title  "packets received from higher layer, vector(packetBytes)"
vector 36  Net80211test.host[1].lo0.lo  passedUpPk:vector(packetBytes)  ETV
attr interpolationmode  none
attr source  packetSentToUpper
attr title  "packets passed to higher layer, vector(packetBytes)"
vector 39  Net80211test.host[1].wlan[0].mac  rcvdPkFromHL:vector(packetBytes)  ETV
attr interpolationmode  none
attr source  packetReceivedFromUpper
attr title  "packets received from higher layer, vector(packetBytes)"
vector 29  Net80211test.host[1].udp  passedUpPk:vector(count)  ETV
attr interpolationmode  none
attr title  "packets passed up, vector(count)"
vector 23  Net80211test.host[1].udpApp[0]  rcvdPk:vector(packetBytes)  ETV
attr interpolationmode  none
attr source  rcvdPk
attr title  "packets received, vector(packetBytes)"
vector 25  Net80211test.host[1].udpApp[0]  rcvdPkLifetime:vector  ETV
attr interpolationmode  none
attr source  messageAge(rcvdPk)
attr title  "received packet lifetime, vector"
attr unit  s
vector 38  Net80211test.host[1].wlan[0].mac  sentDownPk:vector(packetBytes)  ETV
attr interpolationmode  none
attr source  packetSentToLower
attr title  "packets sent to lower layer, vector(packetBytes)"
vector 43  Net80211test.host[1].wlan[0].radio  transmissionState:vector  ETV
attr interpolationmode  sample-hold
attr source  transmissionStateChanged
attr title  "Radio transmission state, vector"
vector 323  Net80211test.host[14].udpApp[0]  sentPk:vector(packetBytes)  ETV
attr interpolationmode  none
attr source  sentPk
attr title  "packets sent, vector(packetBytes)"
vector 326  Net80211test.host[14].udp  sentPk:vector(packetBytes)  ETV
attr interpolationmode  none
attr source  sentPk
attr title  "packets sent, vector(packetBytes)"
vector 334  Net80211test.host[14].lo0.lo  rcvdPkFromHL:vector(packetBytes)  ETV
attr interpolationmode  none
attr source  packetReceivedFromUpper
attr title  "packets received from higher layer, vector(packetBytes)"
vector 335  Net80211test.host[14].lo0.lo  passedUpPk:vector(packetBytes)  ETV
attr interpolationmode  none
attr source  packetSentToUpper
attr title  "packets passed to higher layer, vector(packetBytes)"
vector 338  Net80211test.host[14].wlan[0].mac  rcvdPkFromHL:vector(packetBytes)  ETV
attr interpolationmode  none
attr source  packetReceivedFromUpper
attr title  "packets received from higher layer, vector(packetBytes)"
vector 328  Net80211test.host[14].udp  passedUpPk:vector(count)  ETV
attr interpolationmode  none
attr title  "packets passed up, vector(count)"
vector 322  Net80211test.host[14].udpApp[0]  rcvdPk:vector(packetBytes)  ETV
attr interpolationmode  none
attr source  rcvdPk
attr title  "packets received, vector(packetBytes)"
vector 324  Net80211test.host[14].udpApp[0]  rcvdPkLifetime:vector  ETV
attr interpolationmode  none
attr source  messageAge(rcvdPk)
attr title  "received packet lifetime, vector"
attr unit  s
vector 337  Net80211test.host[14].wlan[0].mac  sentDownPk:vector(packetBytes)  ETV
attr interpolationmode  none
attr source  packetSentToLower
attr title  "packets sent to lower layer, vector(packetBytes)"
vector 342  Net80211test.host[14].wlan[0].radio  transmissionState:vector  ETV
attr interpolationmode  sample-hold
attr source  transmissionStateChanged
attr title  "Radio transmission state, vector"
vector 208  Net80211test.host[9].udpApp[0]  sentPk:vector(packetBytes)  ETV
attr interpolationmode  none
attr source  sentPk
attr title  "packets sent, vector(packetBytes)"
vector 211  Net80211test.host[9].udp  sentPk:vector(packetBytes)  ETV
attr interpolationmode  none
attr source  sentPk
attr title  "packets sent, vector(packetBytes)"
vector 219  Net80211test.host[9].lo0.lo  rcvdPkFromHL:vector(packetBytes)  ETV
attr interpolationmode  none
attr source  packetReceivedFromUpper
attr title  "packets received from higher layer, vector(packetBytes)"
vector 220  Net80211test.host[9].lo0.lo  passedUpPk:vector(packetBytes)  ETV
attr interpolationmode  none
attr source  packetSentToUpper
attr title  "packets passed to higher layer, vector(packetBytes)"
vector 223  Net80211test.host[9].wlan[0].mac  rcvdPkFromHL:vector(packetBytes)  ETV
attr interpolationmode  none
attr source  packetReceivedFromUpper
attr title  "packets received from higher layer, vector(packetBytes)"
vector 213  Net80211test.host[9].udp  passedUpPk:vector(count)  ETV
attr interpolationmode  none
attr title  "packets passed up, vector(count)"
vector 207  Net80211test.host[9].udpApp[0]  rcvdPk:vector(packetBytes)  ETV
attr interpolationmode  none
attr source  rcvdPk
attr title  "packets received, vector(packetBytes)"
vector 209  Net80211test.host[9].udpApp[0]  rcvdPkLifetime:vector  ETV
attr interpolationmode  none
attr source  messageAge(rcvdPk)
attr title  "received packet lifetime, vector"
attr unit  s
vector 222  Net80211test.host[9].wlan[0].mac  sentDownPk:vector(packetBytes)  ETV
attr interpolationmode  none
attr source  packetSentToLower
attr title  "packets sent to lower layer, vector(packetBytes)"
vector 227  Net80211test.host[9].wlan[0].radio  transmissionState:vector  ETV
attr interpolationmode  sample-hold
attr source  transmissionStateChanged
attr title  "Radio transmission state, vector"
0	59059 10114 1614 51656 3.947009828233 15.459198814778 370 512 512 189440 96993280
1	69173 653 1603 51275 3.947009828233 15.447009828233 24 512 512 12288 6291456
2	69826 13872 1614 51656 3.947009828233 15.459198814778 370 0 0.000222724006 0.076928675566 1.7104116595798e-05
4	83698 653 1606 51276 3.947009828233 15.447009828233 24 520 520 12480 6489600
5	84351 10242 680 51655 2.265098398697 15.459198814778 375 520 520 195000 101400000
6	94593 10006 1612 51655 3.947009828233 15.459198814778 370 1 370 68635 16952845
7	104599 118 680 1554 2.265098398697 3.896827572276 5 1 5 15 55
12	104717 677 1608 51278 3.947009828233 15.447009828233 24 540 540 12960 6998400
13	105394 677 1608 51278 3.947009828233 15.447009828233 24 540 540 12960 6998400
14	106071 9940 677 51652 2.265098398697 15.459198814778 351 576 576 202176 116453376
15	116011 677 1615 51285 3.947009828233 15.447009828233 24 576 576 13824 7962624
16	116688 677 1611 51281 3.947009828233 15.447009828233 24 576 576 13824 7962624
17	117365 9940 677 51652 2.265098398697 15.459198814778 351 576 576 202176 116453376
18	127305 1276 0 51305 0 15.447231828233 50 0 3 122 316
19	128581 19769 0 51683 0 15.487340496837 752 0 3 1432 3544
20	148350 2516 1616 51305 3.947009828233 15.447231828233 96 0 2 96 144
21	150866 9 0 0 0 0 1 0 0 0 0
22	150875 43330 0 51683 0 15.487340496837 1650 0 3 384 1056
23	194205 9289 6987 51650 5.852570675034 15.459198809985 330 512 512 168960 86507520
24	203494 569 6976 50729 5.852570675034 15.352570675034 20 512 512 10240 5242880
25	204063 12659 6987 51650 5.852570675034 15.459198809985 330 0 0.000222773465 0.068948882833 1.5335324397078e-05
27	216722 569 6979 50730 5.852570675034 15.352570675034 20 520 520 10400 5408000
28	217291 10484 715 51649 2.265098584287 15.459198809985 375 520 520 195000 101400000
29	227775 9181 6985 51649 5.852570675034 15.459198809985 330 1 330 54615 12033505
30	236956 1141 715 6961 2.265098584287 5.805528498353 45 1 45 1035 31395
35	238097 569 6981 50732 5.852570675034 15.352570675034 20 540 540 10800 5832000
36	238666 569 6981 50732 5.852570675034 15.352570675034 20 540 540 10800 5832000
37	239235 9915 712 51646 2.265098584287 15.459198809985 355 576 576 204480 117780480
38	249150 569 6988 50739 5.852570675034 15.352570675034 20 576 576 11520 6635520
39	249719 569 6984 50735 5.852570675034 15.352570675034 20 576 576 11520 6635520
40	250288 9915 712 51646 2.265098584287 15.459198809985 355 576 576 204480 117780480
41	260203 1076 0 50759 0 15.352792675034 42 0 3 102 264
42	261279 19502 0 51687 0 15.48734067907 752 0 3 1444 3580
43	280781 2116 6989 50759 5.852570675034 15.352792675034 80 0 2 80 120
44	282897 9 0 0 0 0 1 0 0 0 0
45	282906 42196 0 51687 0 15.48734067907 1626 0 3 320 880
46	325102 10389 1932 51578 4.251004747152 15.459198489336 368 512 512 188416 96468992
47	335491 650 1921 50200 4.251004747152 15.251004747152 23 512 512 11776 6029312
48	336141 14071 1932 51578 4.251004747152 15.459198489336 368 0 0.000222458248 0.076672403 1.7039590240671e-05
50	350212 650 1924 50201 4.251004747152 15.251004747152 23 520 520 11960 6219200
51	350862 10576 690 51577 2.265098444508 15.459198489336 375 520 520 195000 101400000
52	361438 10281 1930 51577 4.251004747152 15.459198489336 368 1 368 67896 16679784
53	371719 173 690 1778 2.265098444508 3.987562369775 7 1 7 28 140
58	371892 650 1926 50203 4.251004747152 15.251004747152 23 540 540 12420 6706800
59	372542 650 1926 50203 4.251004747152 15.251004747152 23 540 540 12420 6706800
60	373192 9926 687 51574 2.265098444508 15.459198489336 352 576 576 202752 116785152
61	383118 650 1933 50210 4.251004747152 15.251004747152 23 576 576 13248 7630848
62	383768 650 1929 50206 4.251004747152 15.251004747152 23 576 576 13248 7630848
63	384418 9926 687 51574 2.265098444508 15.459198489336 352 576 576 202752 116785152
64	394344 1226 0 50230 0 15.251226747152 48 0 3 117 303
65	395570 19687 0 51676 0 15.487340369775 752 0 3 1435 3553
66	415257 2416 1934 50230 4.251004747152 15.251226747152 92 0 2 92 138
67	417673 9 0 0 0 0 1 0 0 0 0
68	417682 43016 0 51676 0 15.487340369775 1644 0 3 368 1012
69	460698 10198 2856 51626 4.684311597327 15.459198712658 361 512 512 184832 94633984
70	470896 623 2845 49909 4.684311597327 15.184311597327 22 512 512 11264 5767168
71	471519 13862 2856 51626 4.684311597327 15.459198712658 361 0 0.000222773465 0.075423039425 1.6780641756099e-05
73	485381 623 2848 49910 4.684311597327 15.184311597327 22 520 520 11440 5948800
74	486004 10567 725 51625 2.26509874172 15.459198712658 375 520 520 195000 101400000
75	496571 10090 2854 51625 4.684311597327 15.459198712658 361 1 361 65341 15747181
76	506661 346 725 2773 2.26509874172 4.634920244388 14 1 14 105 1015
81	507007 623 2850 49912 4.684311597327 15.184311597327 22 540 540 11880 6415200
82	507630 623 2850 49912 4.684311597327 15.184311597327 22 540 540 11880 6415200
83	508253 9944 722 51622 2.26509874172 15.459198712658 353 576 576 203328 117116928
84	518197 623 2857 49919 4.684311597327 15.184311597327 22 576 576 12672 7299072
85	518820 623 2853 49915 4.684311597327 15.184311597327 22 576 576 12672 7299072
86	519443 9944 722 51622 2.26509874172 15.459198712658 353 576 576 203328 117116928
87	529387 1176 0 49939 0 15.184533597327 46 0 3 112 290
88	530563 19668 0 51685 0 15.48734054743 752 0 3 1438 3562
89	550231 2316 2858 49939 4.684311597327 15.184533597327 88 0 2 88 132
90	552547 9 0 0 0 0 1 0 0 0 0
91	552556 42828 0 51685 0 15.48734054743 1638 0 3 352 968
92	595384 10228 2736 51596 4.634698061278 15.459198605773 362 512 512 185344 94896128
93	605612 623 2725 49654 4.634698061278 15.134698061278 22 512 512 11264 5767168
94	606235 13858 2736 51596 4.634698061278 15.459198605773 362 0 0.000222627436 0.075595864345 1.6808048533665e-05
96	620093 623 2728 49655 4.634698061278 15.134698061278 22 520 520 11440 5948800
97	620716 10577 710 51595 2.265098559228 15.459198605773 375 520 520 195000 101400000
98	631293 10120 2734 51595 4.634698061278 15.459198605773 362 1 362 65703 15878225
99	641413 327 710 2625 2.265098559228 4.487562377648 13 1 13 91 819
104	641740 645 2730 49657 4.634698061278 15.134698061278 22 540 540 11880 6415200
105	642385 645 2730 49657 4.634698061278 15.134698061278 22 540 540 11880 6415200
106	643030 10307 707 51592 2.265098559228 15.459198605773 353 576 576 203328 117116928
107	653337 645 2737 49664 4.634698061278 15.134698061278 22 576 576 12672 7299072
108	653982 645 2733 49660 4.634698061278 15.134698061278 22 576 576 12672 7299072
109	654627 10307 707 51592 2.265098559228 15.459198605773 353 576 576 203328 117116928
110	664934 1222 0 49684 0 15.134920061278 46 0 3 112 290
111	666156 20441 0 51678 0 15.487340377648 752 0 3 1438 3562
112	686597 2404 2738 49684 4.634698061278 15.134920061278 88 0 2 88 132
113	689001 10 0 0 0 0 1 0 0 0 0
114	689011 44508 0 51678 0 15.487340377648 1638 0 3 352 968
115	733519 9890 6059 51620 5.674470479187 15.459198709496 337 512 512 172544 88342528
116	743409 589 6048 49782 5.674470479187 15.174470479187 20 512 512 10240 5242880
117	743998 13317 6059 51620 5.674470479187 15.459198709496 337 0 0.000222596031 0.070450149387 1.5656863977879e-05
119	757315 589 6051 49783 5.674470479187 15.174470479187 20 520 520 10400 5408000
120	757904 10945 660 51619 2.265098283009 15.459198709496 375 520 520 195000 101400000
121	768849 9782 6057 51619 5.674470479187 15.459198709496 337 1 337 56953 12814425
122	778631 1008 660 6035 2.265098283009 5.634920480011 38 1 38 741 19019
127	779639 589 6053 49785 5.674470479187 15.174470479187 20 540 540 10800 5832000
128	780228 589 6053 49785 5.674470479187 15.174470479187 20 540 540 10800 5832000
129	780817 10356 657 51616 2.265098283009 15.459198709496 355 576 576 204480 117780480
130	791173 589 6060 49792 5.674470479187 15.174470479187 20 576 576 11520 6635520
131	791762 589 6056 49788 5.674470479187 15.174470479187 20 576 576 11520 6635520
132	792351 10356 657 51616 2.265098283009 15.459198709496 355 576 576 204480 117780480
133	802707 1118 0 49812 0 15.174692479187 42 0 3 102 264
134	803825 20427 0 51679 0 15.48734038268 752 0 3 1444 3580
135	824252 2196 6061 49812 5.674470479187 15.174692479187 80 0 2 80 120
136	826448 10 0 0 0 0 1 0 0 0 0
137	826458 44168 0 51679 0 15.48734038268 1626 0 3 320 880
138	870626 10773 1730 51668 3.987340085104 15.487340085104 370 512 512 189440 96993280
139	881399 702 1719 51659 3.987340085104 15.487340085104 24 512 512 12288 6291456
140	882101 14488 1730 51668 3.987340085104 15.487340085104 370 0 0.000222593966 0.076930976838 1.7105134631033e-05
142	896589 702 1722 51660 3.987340085104 15.487340085104 24 520 520 12480 6489600
143	897291 10939 675 51666 2.265098395341 15.487340085104 376 520 520 195520 101670400
144	908230 10665 1728 51666 3.987340085104 15.487340085104 370 1 370 68635 16952845
145	918895 154 675 1697 2.265098395341 3.947232239966 6 1 6 21 91
150	919049 702 1724 51662 3.987340085104 15.487340085104 24 540 540 12960 6998400
151	919751 702 1724 51662 3.987340085104 15.487340085104 24 540 540 12960 6998400
152	920453 10237 672 51640 2.265098395341 15.45919877385 352 576 576 202752 116785152
153	930690 702 1731 51669 3.987340085104 15.487340085104 24 576 576 13824 7962624
154	931392 702 1727 51665 3.987340085104 15.487340085104 24 576 576 13824 7962624
155	932094 10237 672 51640 2.265098395341 15.45919877385 352 576 576 202752 116785152
156	942331 1328 0 51689 0 15.487562085104 50 0 3 122 316
157	943659 20383 0 51689 0 15.487562085104 753 0 3 1433 3545
158	964042 2616 1732 51689 3.987340085104 15.487562085104 96 0 2 96 144
159	966658 10 0 0 0 0 1 0 0 0 0
160	966668 44710 0 51689 0 15.487562085104 1652 0 3 384 1056
161	1011378 10495 3232 51614 4.799632182185 15.459198697887 358 512 512 183296 93847552
162	1021873 645 3221 50456 4.799632182185 15.299632182185 22 512 512 11264 5767168
163	1022518 14125 3232 51614 4.799632182185 15.459198697887 358 0 0.000222593084 0.074672076105 1.6595004360133e-05
165	1036643 645 3224 50457 4.799632182185 15.299632182185 22 520 520 11440 5948800
166	1037288 10969 670 51613 2.265098298111 15.459198697887 375 520 520 195000 101400000
167	1048257 10387 3230 51613 4.799632182185 15.459198697887 358 1 358 64261 15358379
168	1058644 448 670 3158 2.265098298111 4.765098298111 17 1 17 153 1785
173	1059092 645 3226 50459 4.799632182185 15.299632182185 22 540 540 11880 6415200
174	1059737 645 3226 50459 4.799632182185 15.299632182185 22 540 540 11880 6415200
175	1060382 10324 667 51610 2.265098298111 15.459198697887 353 576 576 203328 117116928
176	1070706 645 3233 50466 4.799632182185 15.299632182185 22 576 576 12672 7299072
177	1071351 645 3229 50462 4.799632182185 15.299632182185 22 576 576 12672 7299072
178	1071996 10324 667 51610 2.265098298111 15.459198697887 353 576 576 203328 117116928
179	1082320 1222 0 50486 0 15.299854182185 46 0 3 112 290
180	1083542 20476 0 51680 0 15.487340395371 752 0 3 1438 3562
181	1104018 2404 3234 50486 4.799632182185 15.299854182185 88 0 2 88 132
182	1106422 10 0 0 0 0 1 0 0 0 0
183	1106432 44578 0 51680 0 15.487340395371 1638 0 3 352 968
184	1151010 10446 3388 51584 4.86327786861 15.45919858186 357 512 512 182784 93585408
185	1161456 623 3377 50857 4.86327786861 15.36327786861 22 512 512 11264 5767168
186	1162079 14045 3388 51584 4.86327786861 15.45919858186 357 0 0.000222538581 0.074455942363 1.654832463681e-05
188	1176124 623 3380 50858 4.86327786861 15.36327786861 22 520 520 11440 5948800
189	1176747 10947 695 51583 2.265098446268 15.45919858186 375 520 520 195000 101400000
190	1187694 10338 3386 51583 4.86327786861 15.45919858186 357 1 357 63903 15230215
191	1198032 474 695 3296 2.265098446268 4.799854359005 18 1 18 171 2109
196	1198506 623 3382 50860 4.86327786861 15.36327786861 22 540 540 11880 6415200
197	1199129 623 3382 50860 4.86327786861 15.36327786861 22 540 540 11880 6415200
198	1199752 10324 692 51580 2.265098446268 15.45919858186 353 576 576 203328 117116928
199	1210076 623 3389 50867 4.86327786861 15.36327786861 22 576 576 12672 7299072
200	1210699 623 3385 50863 4.86327786861 15.36327786861 22 576 576 12672 7299072
201	1211322 10324 692 51580 2.265098446268 15.45919858186 353 576 576 203328 117116928
202	1221646 1178 0 50887 0 15.36349986861 46 0 3 112 290
203	1222824 20431 0 51684 0 15.487340500362 752 0 3 1438 3562
204	1243255 2316 3390 50887 4.86327786861 15.36349986861 88 0 2 88 132
205	1245571 10 0 0 0 0 1 0 0 0 0
206	1245581 44356 0 51684 0 15.487340500362 1638 0 3 352 968
207	1289937 9472 8070 51590 6.10322765544 15.459198603733 322 512 512 164864 84410368
208	1299409 542 8059 49526 6.10322765544 15.10322765544 19 512 512 9728 4980736
209	1299951 12767 8070 51590 6.10322765544 15.459198603733 322 0 0.000222550231 0.067339706888 1.4965800131865e-05
211	1312718 542 8062 49527 6.10322765544 15.10322765544 19 520 520 9880 5137600
212	1313260 10952 685 51589 2.265098413474 15.459198603733 375 520 520 195000 101400000
213	1324212 9364 8068 51589 6.10322765544 15.459198603733 322 1 322 52003 11180645
214	1333576 1418 685 7970 2.265098413474 5.987562477323 53 1 53 1431 51039
219	1334994 542 8064 49529 6.10322765544 15.10322765544 19 540 540 10260 5540400
220	1335536 542 8064 49529 6.10322765544 15.10322765544 19 540 540 10260 5540400
221	1336078 10409 682 51586 2.265098413474 15.459198603733 356 576 576 205056 118112256
222	1346487 542 8071 49536 6.10322765544 15.10322765544 19 576 576 10944 6303744
223	1347029 542 8067 49532 6.10322765544 15.10322765544 19 576 576 10944 6303744
224	1347571 10409 682 51586 2.265098413474 15.459198603733 356 576 576 205056 118112256
225	1357980 1028 0 49556 0 15.10344965544 40 0 3 97 251
226	1359008 20440 0 51681 0 15.487340477323 752 0 3 1447 3589
227	1379448 2016 8072 49556 6.10322765544 15.10344965544 76 0 2 76 114
228	1381464 10 0 0 0 0 1 0 0 0 0
229	1381474 43924 0 51681 0 15.487340477323 1620 0 3 304 836
230	1425398 10998 624 51701 2.264876189682 15.487562290763 376 512 512 192512 98566144
231	1436396 783 613 50328 2.264876189682 15.264876189682 27 512 512 13824 7077888
232	1437179 14762 624 51701 2.264876189682 15.487562290763 376 0 0.000222552038 0.077564053052 1.7238351661305e-05
234	1451941 783 616 50329 2.264876189682 15.264876189682 27 520 520 14040 7300800
235	1452724 10998 622 51700 2.264876189682 15.487562290763 376 520 520 195520 101670400
236	1463722 10890 622 51700 2.264876189682 15.487562290763 376 1 376 70876 17789876
242	1474612 783 618 50331 2.264876189682 15.264876189682 27 540 540 14580 7873200
243	1475395 783 618 50331 2.264876189682 15.264876189682 27 540 540 14580 7873200
244	1476178 10215 1520 51697 3.896827448761 15.487562290763 349 576 576 201024 115789824
245	1486393 783 625 50338 2.264876189682 15.264876189682 27 576 576 15552 8957952
246	1487176 783 621 50334 2.264876189682 15.264876189682 27 576 576 15552 8957952
247	1487959 10215 1520 51697 3.896827448761 15.487562290763 349 576 576 201024 115789824
248	1498174 1478 0 50358 0 15.265098189682 56 0 3 137 355
249	1499652 20502 0 51696 0 15.487562290763 753 0 3 1424 3518
250	1520154 2916 626 50358 2.264876189682 15.265098189682 108 0 2 108 162
251	1523070 10 0 0 0 0 1 0 0 0 0
252	1523080 45398 0 51696 0 15.487562290763 1670 0 3 432 1188
253	1568478 10838 1482 51602 3.896605343942 15.459198618171 371 512 512 189952 97255424
254	1579316 701 1471 50985 3.896605343942 15.396605343942 24 512 512 12288 6291456
255	1580017 14586 1482 51602 3.896605343942 15.459198618171 371 0 0.000222495949 0.077107009767 1.7133984482994e-05
257	1594603 701 1474 50986 3.896605343942 15.396605343942 24 520 520 12480 6489600
258	1595304 10977 665 51712 2.265098294501 15.48756234176 376 520 520 195520 101670400
259	1606281 10759 1480 51712 3.896605343942 15.48756234176 372 1 372 69378 17228870
260	1617040 102 665 1375 2.265098294501 3.765098294501 4 1 4 10 30
265	1617142 701 1476 50988 3.896605343942 15.396605343942 24 540 540 12960 6998400
266	1617843 701 1476 50988 3.896605343942 15.396605343942 24 540 540 12960 6998400
267	1618544 10276 662 51709 2.265098294501 15.48756234176 352 576 576 202752 116785152
268	1628820 701 1483 50995 3.896605343942 15.396605343942 24 576 576 13824 7962624
269	1629521 701 1479 50991 3.896605343942 15.396605343942 24 576 576 13824 7962624
270	1630222 10276 662 51709 2.265098294501 15.48756234176 352 576 576 202752 116785152
271	1640498 1326 0 51015 0 15.396827343942 50 0 3 122 316
272	1641824 20460 0 51708 0 15.48756234176 753 0 3 1433 3545
273	1662284 2612 1484 51015 3.896605343942 15.396827343942 96 0 2 96 144
274	1664896 10 0 0 0 0 1 0 0 0 0
275	1664906 44858 0 51708 0 15.48756234176 1652 0 3 384 1056
276	1709764 10413 3649 51572 4.907942100983 15.459198485148 355 512 512 181760 93061120
277	1720177 645 3638 51147 4.907942100983 15.407942100983 22 512 512 11264 5767168
278	1720822 14011 3649 51572 4.907942100983 15.459198485148 355 0 0.000222459403 0.074006235112 1.6447219291911e-05
280	1734833 645 3641 51148 4.907942100983 15.407942100983 22 520 520 11440 5948800
281	1735478 10970 700 51571 2.265098449185 15.459198485148 375 520 520 195000 101400000
282	1746448 10305 3647 51571 4.907942100983 15.459198485148 355 1 355 63190 14976030
283	1756753 528 700 3579 2.265098449185 4.896827522156 20 1 20 210 2870
288	1757281 645 3643 51150 4.907942100983 15.407942100983 22 540 540 11880 6415200
289	1757926 645 3643 51150 4.907942100983 15.407942100983 22 540 540 11880 6415200
290	1758571 10325 697 51568 2.265098449185 15.459198485148 353 576 576 203328 117116928
291	1768896 645 3650 51157 4.907942100983 15.407942100983 22 576 576 12672 7299072
292	1769541 645 3646 51153 4.907942100983 15.407942100983 22 576 576 12672 7299072
293	1770186 10325 697 51568 2.265098449185 15.459198485148 353 576 576 203328 117116928
294	1780511 1222 0 51177 0 15.408164100983 46 0 3 112 290
295	1781733 20477 0 51677 0 15.487340374144 752 0 3 1438 3562
296	1802210 2404 3651 51177 4.907942100983 15.408164100983 88 0 2 88 132
297	1804614 10 0 0 0 0 1 0 0 0 0
298	1804624 44580 0 51677 0 15.487340374144 1638 0 3 352 968
299	1849204 10686 2449 51539 4.458976371886 15.458976371886 364 512 512 186368 95420416
300	1859890 674 2438 51530 4.458976371886 15.458976371886 23 512 512 11776 6029312
301	1860564 14329 2449 51539 4.458976371886 15.458976371886 364 0 0.000222442892 0.075797944851 1.6848474327108e-05
303	1874893 674 2441 51531 4.458976371886 15.458976371886 23 520 520 11960 6219200
304	1875567 10992 705 51537 2.265098534436 15.458976371886 375 520 520 195000 101400000
305	1886559 10578 2447 51537 4.458976371886 15.458976371886 364 1 364 66430 16142490
306	1897137 286 705 2421 2.265098534436 4.447232271125 11 1 11 66 506
311	1897423 674 2443 51533 4.458976371886 15.458976371886 23 540 540 12420 6706800
312	1898097 674 2443 51533 4.458976371886 15.458976371886 23 540 540 12420 6706800
313	1898771 10318 702 51500 2.265098534436 15.455813684856 352 576 576 202752 116785152
314	1909089 674 2450 51540 4.458976371886 15.458976371886 23 576 576 13248 7630848
315	1909763 674 2446 51536 4.458976371886 15.458976371886 23 576 576 13248 7630848
316	1910437 10318 702 51500 2.265098534436 15.455813684856 352 576 576 202752 116785152
317	1920755 1276 0 51560 0 15.459198371886 48 0 3 117 303
318	1922031 20521 0 51682 0 15.487340487068 752 0 3 1435 3553
319	1942552 2512 2451 51560 4.458976371886 15.459198371886 92 0 2 92 138
320	1945064 10 0 0 0 0 1 0 0 0 0
321	1945074 44830 0 51682 0 15.487340487068 1644 0 3 368 1012
322	1989904 9623 7635 51707 5.955591409736 15.487562336579 326 512 512 166912 85458944
323	1999527 589 7624 51402 5.955591409736 15.455591409736 20 512 512 10240 5242880
324	2000116 12929 7635 51707 5.955591409736 15.487562336579 326 0 0.000222519521 0.067997373994 1.51099491554e-05
326	2013045 589 7627 51403 5.955591409736 15.455591409736 20 520 520 10400 5408000
327	2013634 11021 655 51706 2.265098269698 15.487562336579 376 520 520 195520 101670400
328	2024655 9515 7633 51706 5.955591409736 15.487562336579 326 1 326 53301 11601851
329	2034170 1339 655 7546 2.265098269698 5.947232035149 50 1 50 1275 42925
334	2035509 589 7629 51405 5.955591409736 15.455591409736 20 540 540 10800 5832000
335	2036098 589 7629 51405 5.955591409736 15.455591409736 20 540 540 10800 5832000
336	2036687 10432 652 51703 2.265098269698 15.487562336579 356 576 576 205056 118112256
337	2047119 589 7636 51412 5.955591409736 15.455591409736 20 576 576 11520 6635520
338	2047708 589 7632 51408 5.955591409736 15.455591409736 20 576 576 11520 6635520
339	2048297 10432 652 51703 2.265098269698 15.487562336579 356 576 576 205056 118112256
340	2058729 1118 0 51432 0 15.455813409736 42 0 3 102 264
341	2059847 20548 0 51702 0 15.487562336579 753 0 3 1445 3581
342	2080395 2196 7637 51432 5.955591409736 15.455813409736 80 0 2 80 120
343	2082591 10 0 0 0 0 1 0 0 0 0
344	2082601 44410 0 51702 0 15.487562336579 1628 0 3 320 880
345	2127011 10100 4979 51695 5.305306073245 15.487562257494 346 512 512 177152 90701824
346	2137111 617 4968 50600 5.305306073245 15.305306073245 21 512 512 10752 5505024
347	2137728 13570 4979 51695 5.305306073245 15.487562257494 346 0 0.000222528801 0.072231542718 1.605353120725e-05
349	2151298 617 4971 50601 5.305306073245 15.305306073245 21 520 520 10920 5678400
350	2151915 10928 650 51694 2.26509822343 15.487562257494 376 520 520 195520 101670400
351	2162843 9992 4977 51694 5.305306073245 15.487562257494 346 1 346 60031 13867161
352	2172835 789 650 4892 2.26509822343 5.299854321387 30 1 30 465 9455
357	2173624 617 4973 50603 5.305306073245 15.305306073245 21 540 540 11340 6123600
358	2174241 617 4973 50603 5.305306073245 15.305306073245 21 540 540 11340 6123600
359	2174858 10311 647 51691 2.26509822343 15.487562257494 355 576 576 204480 117780480
360	2185169 617 4980 50610 5.305306073245 15.305306073245 21 576 576 12096 6967296
361	2185786 617 4976 50606 5.305306073245 15.305306073245 21 576 576 12096 6967296
362	2186403 10311 647 51691 2.26509822343 15.487562257494 355 576 576 204480 117780480
363	2196714 1170 0 50630 0 15.305528073245 44 0 3 107 277
364	2197884 20362 0 51690 0 15.487562257494 753 0 3 1442 3572
365	2218246 2300 4981 50630 5.305306073245 15.305528073245 84 0 2 84 126
366	2220546 10 0 0 0 0 1 0 0 0 0
367	2220556 44194 0 51690 0 15.487562257494 1634 0 3 336 924
368	2264750 10266 4469 51566 5.230262081169 15.459198479345 349 512 512 178688 91488256
369	2275016 617 4458 50072 5.230262081169 15.230262081169 21 512 512 10752 5505024
370	2275633 13811 4469 51566 5.230262081169 15.459198479345 349 0 0.000222547132 0.072934239151 1.6217697635045e-05
372	2289444 617 4461 50073 5.230262081169 15.230262081169 21 520 520 10920 5678400
373	2290061 10992 720 51565 2.265098640202 15.459198479345 375 520 520 195000 101400000
374	2301053 10158 4467 51565 5.230262081169 15.459198479345 349 1 349 61075 14230475
375	2311211 691 720 4343 2.265098640202 5.184533901042 26 1 26 351 6201
380	2311902 617 4463 50075 5.230262081169 15.230262081169 21 540 540 11340 6123600
381	2312519 617 4463 50075 5.230262081169 15.230262081169 21 540 540 11340 6123600
382	2313136 10375 717 51562 2.265098640202 15.459198479345 354 576 576 203904 117448704
383	2323511 617 4470 50082 5.230262081169 15.230262081169 21 576 576 12096 6967296
384	2324128 617 4466 50078 5.230262081169 15.230262081169 21 576 576 12096 6967296
385	2324745 10375 717 51562 2.265098640202 15.459198479345 354 576 576 203904 117448704
386	2335120 1170 0 50102 0 15.230484081169 44 0 3 107 277
387	2336290 20521 0 51686 0 15.487340571812 752 0 3 1441 3571
388	2356811 2300 4471 50102 5.230262081169 15.230484081169 84 0 2 84 126
389	2359111 10 0 0 0 0 1 0 0 0 0
390	2359121 44512 0 51686 0 15.487340571812 1632 0 3 336 924
