file 94146 1475349869                                           
version 2
run General-0-20161001-21:24:16-8823
attr configname General
attr datetime 20161001-21:24:16
attr experiment General
attr inifile omnetpp.ini
attr iterationvars ""
attr iterationvars2 $repetition=0
attr measurement ""
attr network Net80211test
attr processid 8823
attr repetition 0
attr replication #0
attr resultdir results
attr runnumber 0
attr seedset 0
param **.constraintAreaMaxX 600m
param **.constraintAreaMaxY 400m
param **.constraintAreaMaxZ 0m
param **.constraintAreaMinX 0m
param **.constraintAreaMinY 0m
param **.constraintAreaMinZ 0m
param **.host*.mobility.initFromDisplayString false
param **.host*.mobility.initialX "normal(300m, 50m)"
param **.host*.mobility.initialY "normal(200m, 50m)"
param **.host*.mobility.updateInterval 100ms
param **.host*.mobilityType "\"VirtualSpringMobility\""
param **.host[*].battery.flightHeight 1m
param **.host[*].battery.initialCapacity 35J
param **.host[*].battery.swapHeightFactor 0.5
param **.host[*].networkLayerType "\"IPv4ExtNetworkLayer\""
param **.host[*].udpType "\"UDPExt\""
param **.ip.forceBroadcast true
param **.udpApp[0].chargingStationNumber 1
param **.udpApp[0].checkRechargeTimer 1s
param **.udpApp[0].destAddresses "\"255.255.255.255\""
param **.udpApp[0].destPort 100
param **.udpApp[0].isCentralized true
param **.udpApp[0].localAddress "\"\""
param **.udpApp[0].localPort 100
param **.udpApp[0].messageLength 512B
param **.udpApp[0].receiveBroadcast true
param **.udpApp[0].sendInterval 0.5s
param **.udpApp[0].startTime "truncnormal(5s, 1s)"
param **.wlan[*].bitrate 2Mbps
param **.wlan[*].mac.address "\"auto\""
param **.wlan[*].mac.cwMinBroadcast 31
param **.wlan[*].mac.cwMinData 7
param **.wlan[*].mac.maxQueueSize 14
param **.wlan[*].mac.retryLimit 7
param **.wlan[*].mac.rtsThresholdBytes 3000B
param **.wlan[*].macType "\"Ieee80211MacExt\""
param **.wlan[*].mgmt.frameCapacity 10
param **.wlan[*].mgmtType "\"Ieee80211MgmtAdhocExt\""
param **.wlan[*].radio.receiver.sensitivity -85dBm
param **.wlan[*].radio.receiver.snirThreshold 4dB
param **.wlan[*].radio.receiverType "\"Ieee80211ScalarReceiverExt\""
param **.wlan[*].radio.transmitter.power 100mW
param *.host[*].numUdpApps 1
param *.host[*].udpApp[*].typename "\"UDPBasicRecharge\""
param *.numHosts 4

vector 22  Net80211test.host[0].wlan[0].mac.ctn[0]  state:vector  ETV
attr interpolationmode  none
attr source  stateChanged
attr title  "contention state, vector"
vector 45  Net80211test.host[1].wlan[0].mac.ctn[0]  state:vector  ETV
attr interpolationmode  none
attr source  stateChanged
attr title  "contention state, vector"
vector 68  Net80211test.host[2].wlan[0].mac.ctn[0]  state:vector  ETV
attr interpolationmode  none
attr source  stateChanged
attr title  "contention state, vector"
vector 91  Net80211test.host[3].wlan[0].mac.ctn[0]  state:vector  ETV
attr interpolationmode  none
attr source  stateChanged
attr title  "contention state, vector"
vector 18  Net80211test.host[0].wlan[0].radio  radioMode:vector  ETV
attr interpolationmode  sample-hold
attr source  radioModeChanged
attr title  "Radio mode, vector"
vector 21  Net80211test.host[0].wlan[0].radio  radioChannel:vector  ETV
attr interpolationmode  sample-hold
attr source  radioChannelChanged
attr title  "Radio channel, vector"
vector 41  Net80211test.host[1].wlan[0].radio  radioMode:vector  ETV
attr interpolationmode  sample-hold
attr source  radioModeChanged
attr title  "Radio mode, vector"
vector 44  Net80211test.host[1].wlan[0].radio  radioChannel:vector  ETV
attr interpolationmode  sample-hold
attr source  radioChannelChanged
attr title  "Radio channel, vector"
vector 64  Net80211test.host[2].wlan[0].radio  radioMode:vector  ETV
attr interpolationmode  sample-hold
attr source  radioModeChanged
attr title  "Radio mode, vector"
vector 67  Net80211test.host[2].wlan[0].radio  radioChannel:vector  ETV
attr interpolationmode  sample-hold
attr source  radioChannelChanged
attr title  "Radio channel, vector"
vector 87  Net80211test.host[3].wlan[0].radio  radioMode:vector  ETV
attr interpolationmode  sample-hold
attr source  radioModeChanged
attr title  "Radio mode, vector"
vector 90  Net80211test.host[3].wlan[0].radio  radioChannel:vector  ETV
attr interpolationmode  sample-hold
attr source  radioChannelChanged
attr title  "Radio channel, vector"
vector 19  Net80211test.host[0].wlan[0].radio  receptionState:vector  ETV
attr interpolationmode  sample-hold
attr source  receptionStateChanged
attr title  "Radio reception state, vector"
vector 42  Net80211test.host[1].wlan[0].radio  receptionState:vector  ETV
attr interpolationmode  sample-hold
attr source  receptionStateChanged
attr title  "Radio reception state, vector"
vector 65  Net80211test.host[2].wlan[0].radio  receptionState:vector  ETV
attr interpolationmode  sample-hold
attr source  receptionStateChanged
attr title  "Radio reception state, vector"
vector 88  Net80211test.host[3].wlan[0].radio  receptionState:vector  ETV
attr interpolationmode  sample-hold
attr source  receptionStateChanged
attr title  "Radio reception state, vector"
vector 1  Net80211test.host[0].udpApp[0]  sentPk:vector(packetBytes)  ETV
attr interpolationmode  none
attr source  sentPk
attr title  "packets sent, vector(packetBytes)"
vector 4  Net80211test.host[0].udp  sentPk:vector(packetBytes)  ETV
attr interpolationmode  none
attr source  sentPk
attr title  "packets sent, vector(packetBytes)"
vector 12  Net80211test.host[0].lo0.lo  rcvdPkFromHL:vector(packetBytes)  ETV
attr interpolationmode  none
attr source  packetReceivedFromUpper
attr title  "packets received from higher layer, vector(packetBytes)"
vector 13  Net80211test.host[0].lo0.lo  passedUpPk:vector(packetBytes)  ETV
attr interpolationmode  none
attr source  packetSentToUpper
attr title  "packets passed to higher layer, vector(packetBytes)"
vector 16  Net80211test.host[0].wlan[0].mac  rcvdPkFromHL:vector(packetBytes)  ETV
attr interpolationmode  none
attr source  packetReceivedFromUpper
attr title  "packets received from higher layer, vector(packetBytes)"
vector 5  Net80211test.host[0].udp  rcvdPk:vector(packetBytes)  ETV
attr interpolationmode  none
attr source  rcvdPk
attr title  "packets received, vector(packetBytes)"
vector 6  Net80211test.host[0].udp  passedUpPk:vector(count)  ETV
attr interpolationmode  none
attr title  "packets passed up, vector(count)"
vector 0  Net80211test.host[0].udpApp[0]  rcvdPk:vector(packetBytes)  ETV
attr interpolationmode  none
attr source  rcvdPk
attr title  "packets received, vector(packetBytes)"
vector 2  Net80211test.host[0].udpApp[0]  rcvdPkLifetime:vector  ETV
attr interpolationmode  none
attr source  messageAge(rcvdPk)
attr title  "received packet lifetime, vector"
attr unit  s
vector 15  Net80211test.host[0].wlan[0].mac  sentDownPk:vector(packetBytes)  ETV
attr interpolationmode  none
attr source  packetSentToLower
attr title  "packets sent to lower layer, vector(packetBytes)"
vector 20  Net80211test.host[0].wlan[0].radio  transmissionState:vector  ETV
attr interpolationmode  sample-hold
attr source  transmissionStateChanged
attr title  "Radio transmission state, vector"
vector 40  Net80211test.host[1].wlan[0].mac  rcvdPkFromLL:vector(packetBytes)  ETV
attr interpolationmode  none
attr source  packetReceivedFromLower
attr title  "packets received from lower layer, vector(packetBytes)"
vector 37  Net80211test.host[1].wlan[0].mac  passedUpPk:vector(packetBytes)  ETV
attr interpolationmode  none
attr source  packetSentToUpper
attr title  "packets passed to higher layer, vector(packetBytes)"
vector 63  Net80211test.host[2].wlan[0].mac  rcvdPkFromLL:vector(packetBytes)  ETV
attr interpolationmode  none
attr source  packetReceivedFromLower
attr title  "packets received from lower layer, vector(packetBytes)"
vector 60  Net80211test.host[2].wlan[0].mac  passedUpPk:vector(packetBytes)  ETV
attr interpolationmode  none
attr source  packetSentToUpper
attr title  "packets passed to higher layer, vector(packetBytes)"
vector 86  Net80211test.host[3].wlan[0].mac  rcvdPkFromLL:vector(packetBytes)  ETV
attr interpolationmode  none
attr source  packetReceivedFromLower
attr title  "packets received from lower layer, vector(packetBytes)"
vector 83  Net80211test.host[3].wlan[0].mac  passedUpPk:vector(packetBytes)  ETV
attr interpolationmode  none
attr source  packetSentToUpper
attr title  "packets passed to higher layer, vector(packetBytes)"
vector 28  Net80211test.host[1].udp  rcvdPk:vector(packetBytes)  ETV
attr interpolationmode  none
attr source  rcvdPk
attr title  "packets received, vector(packetBytes)"
vector 30  Net80211test.host[1].udp  droppedPkWrongPort:vector(count)  ETV
attr interpolationmode  none
attr title  "packets dropped (wrong port), vector(count)"
vector 51  Net80211test.host[2].udp  rcvdPk:vector(packetBytes)  ETV
attr interpolationmode  none
attr source  rcvdPk
attr title  "packets received, vector(packetBytes)"
vector 53  Net80211test.host[2].udp  droppedPkWrongPort:vector(count)  ETV
attr interpolationmode  none
attr title  "packets dropped (wrong port), vector(count)"
vector 74  Net80211test.host[3].udp  rcvdPk:vector(packetBytes)  ETV
attr interpolationmode  none
attr source  rcvdPk
attr title  "packets received, vector(packetBytes)"
vector 76  Net80211test.host[3].udp  droppedPkWrongPort:vector(count)  ETV
attr interpolationmode  none
attr title  "packets dropped (wrong port), vector(count)"
vector 70  Net80211test.host[3].udpApp[0]  sentPk:vector(packetBytes)  ETV
attr interpolationmode  none
attr source  sentPk
attr title  "packets sent, vector(packetBytes)"
vector 73  Net80211test.host[3].udp  sentPk:vector(packetBytes)  ETV
attr interpolationmode  none
attr source  sentPk
attr title  "packets sent, vector(packetBytes)"
vector 81  Net80211test.host[3].lo0.lo  rcvdPkFromHL:vector(packetBytes)  ETV
attr interpolationmode  none
attr source  packetReceivedFromUpper
attr title  "packets received from higher layer, vector(packetBytes)"
vector 82  Net80211test.host[3].lo0.lo  passedUpPk:vector(packetBytes)  ETV
attr interpolationmode  none
attr source  packetSentToUpper
attr title  "packets passed to higher layer, vector(packetBytes)"
vector 85  Net80211test.host[3].wlan[0].mac  rcvdPkFromHL:vector(packetBytes)  ETV
attr interpolationmode  none
attr source  packetReceivedFromUpper
attr title  "packets received from higher layer, vector(packetBytes)"
vector 75  Net80211test.host[3].udp  passedUpPk:vector(count)  ETV
attr interpolationmode  none
attr title  "packets passed up, vector(count)"
vector 69  Net80211test.host[3].udpApp[0]  rcvdPk:vector(packetBytes)  ETV
attr interpolationmode  none
attr source  rcvdPk
attr title  "packets received, vector(packetBytes)"
vector 71  Net80211test.host[3].udpApp[0]  rcvdPkLifetime:vector  ETV
attr interpolationmode  none
attr source  messageAge(rcvdPk)
attr title  "received packet lifetime, vector"
attr unit  s
vector 84  Net80211test.host[3].wlan[0].mac  sentDownPk:vector(packetBytes)  ETV
attr interpolationmode  none
attr source  packetSentToLower
attr title  "packets sent to lower layer, vector(packetBytes)"
vector 89  Net80211test.host[3].wlan[0].radio  transmissionState:vector  ETV
attr interpolationmode  sample-hold
attr source  transmissionStateChanged
attr title  "Radio transmission state, vector"
vector 17  Net80211test.host[0].wlan[0].mac  rcvdPkFromLL:vector(packetBytes)  ETV
attr interpolationmode  none
attr source  packetReceivedFromLower
attr title  "packets received from lower layer, vector(packetBytes)"
vector 14  Net80211test.host[0].wlan[0].mac  passedUpPk:vector(packetBytes)  ETV
attr interpolationmode  none
attr source  packetSentToUpper
attr title  "packets passed to higher layer, vector(packetBytes)"
vector 24  Net80211test.host[1].udpApp[0]  sentPk:vector(packetBytes)  ETV
attr interpolationmode  none
attr source  sentPk
attr title  "packets sent, vector(packetBytes)"
vector 27  Net80211test.host[1].udp  sentPk:vector(packetBytes)  ETV
attr interpolationmode  none
attr source  sentPk
attr title  "packets sent, vector(packetBytes)"
vector 35  Net80211test.host[1].lo0.lo  rcvdPkFromHL:vector(packetBytes)  ETV
attr interpolationmode  none
attr source  packetReceivedFromUpper
attr title  "packets received from higher layer, vector(packetBytes)"
vector 36  Net80211test.host[1].lo0.lo  passedUpPk:vector(packetBytes)  ETV
attr interpolationmode  none
attr source  packetSentToUpper
attr title  "packets passed to higher layer, vector(packetBytes)"
vector 39  Net80211test.host[1].wlan[0].mac  rcvdPkFromHL:vector(packetBytes)  ETV
attr interpolationmode  none
attr source  packetReceivedFromUpper
attr title  "packets received from higher layer, vector(packetBytes)"
vector 29  Net80211test.host[1].udp  passedUpPk:vector(count)  ETV
attr interpolationmode  none
attr title  "packets passed up, vector(count)"
vector 23  Net80211test.host[1].udpApp[0]  rcvdPk:vector(packetBytes)  ETV
attr interpolationmode  none
attr source  rcvdPk
attr title  "packets received, vector(packetBytes)"
vector 25  Net80211test.host[1].udpApp[0]  rcvdPkLifetime:vector  ETV
attr interpolationmode  none
attr source  messageAge(rcvdPk)
attr title  "received packet lifetime, vector"
attr unit  s
vector 38  Net80211test.host[1].wlan[0].mac  sentDownPk:vector(packetBytes)  ETV
attr interpolationmode  none
attr source  packetSentToLower
attr title  "packets sent to lower layer, vector(packetBytes)"
vector 43  Net80211test.host[1].wlan[0].radio  transmissionState:vector  ETV
attr interpolationmode  sample-hold
attr source  transmissionStateChanged
attr title  "Radio transmission state, vector"
vector 52  Net80211test.host[2].udp  passedUpPk:vector(count)  ETV
attr interpolationmode  none
attr title  "packets passed up, vector(count)"
vector 46  Net80211test.host[2].udpApp[0]  rcvdPk:vector(packetBytes)  ETV
attr interpolationmode  none
attr source  rcvdPk
attr title  "packets received, vector(packetBytes)"
vector 48  Net80211test.host[2].udpApp[0]  rcvdPkLifetime:vector  ETV
attr interpolationmode  none
attr source  messageAge(rcvdPk)
attr title  "received packet lifetime, vector"
attr unit  s
vector 47  Net80211test.host[2].udpApp[0]  sentPk:vector(packetBytes)  ETV
attr interpolationmode  none
attr source  sentPk
attr title  "packets sent, vector(packetBytes)"
vector 50  Net80211test.host[2].udp  sentPk:vector(packetBytes)  ETV
attr interpolationmode  none
attr source  sentPk
attr title  "packets sent, vector(packetBytes)"
vector 58  Net80211test.host[2].lo0.lo  rcvdPkFromHL:vector(packetBytes)  ETV
attr interpolationmode  none
attr source  packetReceivedFromUpper
attr title  "packets received from higher layer, vector(packetBytes)"
vector 59  Net80211test.host[2].lo0.lo  passedUpPk:vector(packetBytes)  ETV
attr interpolationmode  none
attr source  packetSentToUpper
attr title  "packets passed to higher layer, vector(packetBytes)"
vector 62  Net80211test.host[2].wlan[0].mac  rcvdPkFromHL:vector(packetBytes)  ETV
attr interpolationmode  none
attr source  packetReceivedFromUpper
attr title  "packets received from higher layer, vector(packetBytes)"
vector 61  Net80211test.host[2].wlan[0].mac  sentDownPk:vector(packetBytes)  ETV
attr interpolationmode  none
attr source  packetSentToLower
attr title  "packets sent to lower layer, vector(packetBytes)"
vector 66  Net80211test.host[2].wlan[0].radio  transmissionState:vector  ETV
attr interpolationmode  sample-hold
attr source  transmissionStateChanged
attr title  "Radio transmission state, vector"
0	15441 799 259 2591 3.947009828233 12.947009828233 31 512 512 15872 8126464
1	16240 335 248 2582 3.947009828233 12.947009828233 13 512 512 6656 3407872
2	16575 962 259 2591 3.947009828233 12.947009828233 31 0 0.000222731075 0.004001877836 8.897242890902e-07
4	17537 335 251 2583 3.947009828233 12.947009828233 13 520 520 6760 3515200
5	17872 1269 257 2589 3.947009828233 12.947009828233 49 520 520 25480 13249600
6	19141 1211 257 2589 3.947009828233 12.947009828233 49 1 49 1225 40425
12	20352 348 253 2585 3.947009828233 12.947009828233 13 540 540 7020 3790800
13	20700 348 253 2585 3.947009828233 12.947009828233 13 540 540 7020 3790800
14	21048 970 519 2565 5.720108709309 12.852793058365 36 576 576 20736 11943936
15	22018 348 260 2592 3.947009828233 12.947009828233 13 576 576 7488 4313088
16	22366 348 256 2588 3.947009828233 12.947009828233 13 576 576 7488 4313088
17	22714 970 519 2565 5.720108709309 12.852793058365 36 576 576 20736 11943936
18	23684 662 0 2599 0 12.947231828233 28 0 3 67 173
19	24346 2448 0 2599 0 12.947231828233 99 0 3 158 374
20	26794 1288 261 2599 3.947009828233 12.947231828233 52 0 2 52 78
21	28082 9 0 0 0 0 1 0 0 0 0
22	28091 6846 0 2599 0 12.947231828233 278 0 3 208 572
23	34937 543 555 2016 5.884780782412 10.884780782412 20 512 512 10240 5242880
24	35480 190 544 2007 5.884780782412 10.884780782412 7 512 512 3584 1835008
25	35670 670 555 2016 5.884780782412 10.884780782412 20 0 0.000222514125 0.002890246038 6.4257888652376e-07
27	36340 190 547 2008 5.884780782412 10.884780782412 7 520 520 3640 1892800
28	36530 1323 280 2604 3.947231828233 12.947231931941 49 520 520 25480 13249600
29	37853 1140 553 2604 5.884780782412 12.947231931941 44 1 44 990 29370
30	38993 120 280 529 3.947231828233 5.720108709309 5 1 5 15 55
35	39113 190 549 2010 5.884780782412 10.884780782412 7 540 540 3780 2041200
36	39303 190 549 2010 5.884780782412 10.884780782412 7 540 540 3780 2041200
37	39493 1133 271 2601 3.947231828233 12.947231931941 42 576 576 24192 13934592
38	40626 190 556 2017 5.884780782412 10.884780782412 7 576 576 4032 2322432
39	40816 190 552 2013 5.884780782412 10.884780782412 7 576 576 4032 2322432
40	41006 1133 271 2601 3.947231828233 12.947231931941 42 576 576 24192 13934592
41	42139 370 0 2024 0 10.885002782412 16 0 3 37 95
42	42509 2459 0 2600 0 12.947231931941 99 0 3 176 428
43	44968 704 557 2024 5.884780782412 10.885002782412 28 0 2 28 42
44	45672 9 0 0 0 0 1 0 0 0 0
45	45681 5992 0 2600 0 12.947231931941 242 0 3 112 308
46	51673 1140 674 2617 6.22010871917 12.947232219726 42 512 512 21504 11010048
47	52813 381 686 2540 6.352570675034 12.852570675034 14 512 512 7168 3670016
48	53194 1417 674 2617 6.22010871917 12.947232219726 42 0 0.000222741366 0.006229551203 1.3859765083343e-06
50	54611 381 687 2541 6.352570675034 12.852570675034 14 520 520 7280 3785600
51	54992 1321 281 2616 3.947231828233 12.947232219726 49 520 520 25480 13249600
52	56313 1138 572 2616 5.885002782412 12.947232219726 44 1 44 990 29370
53	57451 120 281 530 3.947231828233 5.720108709309 5 1 5 15 55
58	57571 381 689 2543 6.352570675034 12.852570675034 14 540 540 7560 4082400
59	57952 381 689 2543 6.352570675034 12.852570675034 14 540 540 7560 4082400
60	58333 940 272 2613 3.947231828233 12.947232219726 35 576 576 20160 11612160
61	59273 381 696 2550 6.352570675034 12.852570675034 14 576 576 8064 4644864
62	59654 381 692 2546 6.352570675034 12.852570675034 14 576 576 8064 4644864
63	60035 940 272 2613 3.947231828233 12.947232219726 35 576 576 20160 11612160
64	60975 724 0 2557 0 12.852792675034 30 0 3 72 186
65	61699 2455 0 2612 0 12.947232219726 99 0 3 155 365
66	64154 1412 697 2557 6.352570675034 12.852792675034 56 0 2 56 84
67	65566 9 0 0 0 0 1 0 0 0 0
68	65575 7046 0 2612 0 12.947232219726 284 0 3 224 616
69	72621 1219 507 2611 5.719886709309 12.947232190284 45 512 512 23040 11796480
70	73840 407 496 2495 5.719886709309 12.719886709309 15 512 512 7680 3932160
71	74247 1512 507 2611 5.719886709309 12.947232190284 45 0 0.000222748526 0.006672494278 1.4840742545313e-06
73	75759 407 499 2496 5.719886709309 12.719886709309 15 520 520 7800 4056000
74	76166 1322 282 2610 3.947231828233 12.947232190284 49 520 520 25480 13249600
75	77488 1164 505 2610 5.719886709309 12.947232190284 45 1 45 1035 31395
76	78652 96 282 478 3.947231828233 5.447231828233 4 1 4 10 30
81	78748 407 501 2498 5.719886709309 12.719886709309 15 540 540 8100 4374000
82	79155 407 501 2498 5.719886709309 12.719886709309 15 540 540 8100 4374000
83	79562 915 273 2607 3.947231828233 12.947232190284 34 576 576 19584 11280384
84	80477 407 508 2505 5.719886709309 12.719886709309 15 576 576 8640 4976640
85	80884 407 504 2501 5.719886709309 12.719886709309 15 576 576 8640 4976640
86	81291 915 273 2607 3.947231828233 12.947232190284 34 576 576 19584 11280384
87	82206 772 0 2512 0 12.720108709309 32 0 3 77 199
88	82978 2457 0 2606 0 12.947232190284 99 0 3 152 356
89	85435 1508 509 2512 5.719886709309 12.720108709309 60 0 2 60 90
90	86943 9 0 0 0 0 1 0 0 0 0
91	86952 7194 0 2606 0 12.947232190284 290 0 3 240 660
