file 176725 1475600875                                          
version 2
run General-0-20161004-19:07:06-16667
attr configname General
attr datetime 20161004-19:07:06
attr experiment General
attr inifile omnetpp.ini
attr iterationvars ""
attr iterationvars2 $repetition=0
attr measurement ""
attr network Net80211test
attr processid 16667
attr repetition 0
attr replication #0
attr resultdir results
attr runnumber 0
attr seedset 0
param **.constraintAreaMaxX 600m
param **.constraintAreaMaxY 400m
param **.constraintAreaMaxZ 0m
param **.constraintAreaMinX 0m
param **.constraintAreaMinY 0m
param **.constraintAreaMinZ 0m
param **.host*.mobility.initFromDisplayString false
param **.host*.mobility.initialX "normal(300m, 50m)"
param **.host*.mobility.initialY "normal(200m, 50m)"
param **.host*.mobility.updateInterval 100ms
param **.host*.mobilityType "\"VirtualSpringMobility\""
param **.host[*].battery.flightHeight 1m
param **.host[*].battery.initialCapacity 55J
param **.host[*].battery.swapHeightFactor 0
param **.host[*].networkLayerType "\"IPv4ExtNetworkLayer\""
param **.host[*].udpType "\"UDPExt\""
param **.ip.forceBroadcast true
param **.udpApp[0].chargingStationNumber 1
param **.udpApp[0].checkRechargeTimer 1s
param **.udpApp[0].destAddresses "\"255.255.255.255\""
param **.udpApp[0].destPort 100
param **.udpApp[0].isCentralized true
param **.udpApp[0].localAddress "\"\""
param **.udpApp[0].localPort 100
param **.udpApp[0].messageLength 512B
param **.udpApp[0].receiveBroadcast true
param **.udpApp[0].schedulingType "\"ANALYTICAL\""
param **.udpApp[0].sendInterval 0.5s
param **.udpApp[0].startTime "truncnormal(5s, 1s)"
param **.wlan[*].bitrate 2Mbps
param **.wlan[*].mac.address "\"auto\""
param **.wlan[*].mac.cwMinBroadcast 31
param **.wlan[*].mac.cwMinData 7
param **.wlan[*].mac.maxQueueSize 14
param **.wlan[*].mac.retryLimit 7
param **.wlan[*].mac.rtsThresholdBytes 3000B
param **.wlan[*].macType "\"Ieee80211MacExt\""
param **.wlan[*].mgmt.frameCapacity 10
param **.wlan[*].mgmtType "\"Ieee80211MgmtAdhocExt\""
param **.wlan[*].radio.receiver.sensitivity -85dBm
param **.wlan[*].radio.receiver.snirThreshold 4dB
param **.wlan[*].radio.receiverType "\"Ieee80211ScalarReceiverExt\""
param **.wlan[*].radio.transmitter.power 100mW
param *.host[*].numUdpApps 1
param *.host[*].udpApp[*].typename "\"UDPBasicRecharge\""
param *.numHosts 4

vector 22  Net80211test.host[0].wlan[0].mac.ctn[0]  state:vector  ETV
attr interpolationmode  none
attr source  stateChanged
attr title  "contention state, vector"
vector 45  Net80211test.host[1].wlan[0].mac.ctn[0]  state:vector  ETV
attr interpolationmode  none
attr source  stateChanged
attr title  "contention state, vector"
vector 68  Net80211test.host[2].wlan[0].mac.ctn[0]  state:vector  ETV
attr interpolationmode  none
attr source  stateChanged
attr title  "contention state, vector"
vector 91  Net80211test.host[3].wlan[0].mac.ctn[0]  state:vector  ETV
attr interpolationmode  none
attr source  stateChanged
attr title  "contention state, vector"
vector 18  Net80211test.host[0].wlan[0].radio  radioMode:vector  ETV
attr interpolationmode  sample-hold
attr source  radioModeChanged
attr title  "Radio mode, vector"
vector 21  Net80211test.host[0].wlan[0].radio  radioChannel:vector  ETV
attr interpolationmode  sample-hold
attr source  radioChannelChanged
attr title  "Radio channel, vector"
vector 41  Net80211test.host[1].wlan[0].radio  radioMode:vector  ETV
attr interpolationmode  sample-hold
attr source  radioModeChanged
attr title  "Radio mode, vector"
vector 44  Net80211test.host[1].wlan[0].radio  radioChannel:vector  ETV
attr interpolationmode  sample-hold
attr source  radioChannelChanged
attr title  "Radio channel, vector"
vector 64  Net80211test.host[2].wlan[0].radio  radioMode:vector  ETV
attr interpolationmode  sample-hold
attr source  radioModeChanged
attr title  "Radio mode, vector"
vector 67  Net80211test.host[2].wlan[0].radio  radioChannel:vector  ETV
attr interpolationmode  sample-hold
attr source  radioChannelChanged
attr title  "Radio channel, vector"
vector 87  Net80211test.host[3].wlan[0].radio  radioMode:vector  ETV
attr interpolationmode  sample-hold
attr source  radioModeChanged
attr title  "Radio mode, vector"
vector 90  Net80211test.host[3].wlan[0].radio  radioChannel:vector  ETV
attr interpolationmode  sample-hold
attr source  radioChannelChanged
attr title  "Radio channel, vector"
vector 19  Net80211test.host[0].wlan[0].radio  receptionState:vector  ETV
attr interpolationmode  sample-hold
attr source  receptionStateChanged
attr title  "Radio reception state, vector"
vector 42  Net80211test.host[1].wlan[0].radio  receptionState:vector  ETV
attr interpolationmode  sample-hold
attr source  receptionStateChanged
attr title  "Radio reception state, vector"
vector 65  Net80211test.host[2].wlan[0].radio  receptionState:vector  ETV
attr interpolationmode  sample-hold
attr source  receptionStateChanged
attr title  "Radio reception state, vector"
vector 88  Net80211test.host[3].wlan[0].radio  receptionState:vector  ETV
attr interpolationmode  sample-hold
attr source  receptionStateChanged
attr title  "Radio reception state, vector"
vector 92  Net80211test.host[0].udpApp[0]  personalCoverage  ETV
vector 93  Net80211test.host[0].udpApp[0]  totalCoverage  ETV
vector 94  Net80211test.host[1].udpApp[0]  personalCoverage  ETV
vector 96  Net80211test.host[2].udpApp[0]  personalCoverage  ETV
vector 98  Net80211test.host[3].udpApp[0]  personalCoverage  ETV
vector 1  Net80211test.host[0].udpApp[0]  sentPk:vector(packetBytes)  ETV
attr interpolationmode  none
attr source  sentPk
attr title  "packets sent, vector(packetBytes)"
vector 4  Net80211test.host[0].udp  sentPk:vector(packetBytes)  ETV
attr interpolationmode  none
attr source  sentPk
attr title  "packets sent, vector(packetBytes)"
vector 12  Net80211test.host[0].lo0.lo  rcvdPkFromHL:vector(packetBytes)  ETV
attr interpolationmode  none
attr source  packetReceivedFromUpper
attr title  "packets received from higher layer, vector(packetBytes)"
vector 13  Net80211test.host[0].lo0.lo  passedUpPk:vector(packetBytes)  ETV
attr interpolationmode  none
attr source  packetSentToUpper
attr title  "packets passed to higher layer, vector(packetBytes)"
vector 16  Net80211test.host[0].wlan[0].mac  rcvdPkFromHL:vector(packetBytes)  ETV
attr interpolationmode  none
attr source  packetReceivedFromUpper
attr title  "packets received from higher layer, vector(packetBytes)"
vector 5  Net80211test.host[0].udp  rcvdPk:vector(packetBytes)  ETV
attr interpolationmode  none
attr source  rcvdPk
attr title  "packets received, vector(packetBytes)"
vector 6  Net80211test.host[0].udp  passedUpPk:vector(count)  ETV
attr interpolationmode  none
attr title  "packets passed up, vector(count)"
vector 0  Net80211test.host[0].udpApp[0]  rcvdPk:vector(packetBytes)  ETV
attr interpolationmode  none
attr source  rcvdPk
attr title  "packets received, vector(packetBytes)"
vector 2  Net80211test.host[0].udpApp[0]  rcvdPkLifetime:vector  ETV
attr interpolationmode  none
attr source  messageAge(rcvdPk)
attr title  "received packet lifetime, vector"
attr unit  s
vector 15  Net80211test.host[0].wlan[0].mac  sentDownPk:vector(packetBytes)  ETV
attr interpolationmode  none
attr source  packetSentToLower
attr title  "packets sent to lower layer, vector(packetBytes)"
vector 20  Net80211test.host[0].wlan[0].radio  transmissionState:vector  ETV
attr interpolationmode  sample-hold
attr source  transmissionStateChanged
attr title  "Radio transmission state, vector"
vector 40  Net80211test.host[1].wlan[0].mac  rcvdPkFromLL:vector(packetBytes)  ETV
attr interpolationmode  none
attr source  packetReceivedFromLower
attr title  "packets received from lower layer, vector(packetBytes)"
vector 37  Net80211test.host[1].wlan[0].mac  passedUpPk:vector(packetBytes)  ETV
attr interpolationmode  none
attr source  packetSentToUpper
attr title  "packets passed to higher layer, vector(packetBytes)"
vector 63  Net80211test.host[2].wlan[0].mac  rcvdPkFromLL:vector(packetBytes)  ETV
attr interpolationmode  none
attr source  packetReceivedFromLower
attr title  "packets received from lower layer, vector(packetBytes)"
vector 60  Net80211test.host[2].wlan[0].mac  passedUpPk:vector(packetBytes)  ETV
attr interpolationmode  none
attr source  packetSentToUpper
attr title  "packets passed to higher layer, vector(packetBytes)"
vector 86  Net80211test.host[3].wlan[0].mac  rcvdPkFromLL:vector(packetBytes)  ETV
attr interpolationmode  none
attr source  packetReceivedFromLower
attr title  "packets received from lower layer, vector(packetBytes)"
vector 83  Net80211test.host[3].wlan[0].mac  passedUpPk:vector(packetBytes)  ETV
attr interpolationmode  none
attr source  packetSentToUpper
attr title  "packets passed to higher layer, vector(packetBytes)"
vector 28  Net80211test.host[1].udp  rcvdPk:vector(packetBytes)  ETV
attr interpolationmode  none
attr source  rcvdPk
attr title  "packets received, vector(packetBytes)"
vector 30  Net80211test.host[1].udp  droppedPkWrongPort:vector(count)  ETV
attr interpolationmode  none
attr title  "packets dropped (wrong port), vector(count)"
vector 51  Net80211test.host[2].udp  rcvdPk:vector(packetBytes)  ETV
attr interpolationmode  none
attr source  rcvdPk
attr title  "packets received, vector(packetBytes)"
vector 53  Net80211test.host[2].udp  droppedPkWrongPort:vector(count)  ETV
attr interpolationmode  none
attr title  "packets dropped (wrong port), vector(count)"
vector 74  Net80211test.host[3].udp  rcvdPk:vector(packetBytes)  ETV
attr interpolationmode  none
attr source  rcvdPk
attr title  "packets received, vector(packetBytes)"
vector 76  Net80211test.host[3].udp  droppedPkWrongPort:vector(count)  ETV
attr interpolationmode  none
attr title  "packets dropped (wrong port), vector(count)"
vector 70  Net80211test.host[3].udpApp[0]  sentPk:vector(packetBytes)  ETV
attr interpolationmode  none
attr source  sentPk
attr title  "packets sent, vector(packetBytes)"
vector 73  Net80211test.host[3].udp  sentPk:vector(packetBytes)  ETV
attr interpolationmode  none
attr source  sentPk
attr title  "packets sent, vector(packetBytes)"
vector 81  Net80211test.host[3].lo0.lo  rcvdPkFromHL:vector(packetBytes)  ETV
attr interpolationmode  none
attr source  packetReceivedFromUpper
attr title  "packets received from higher layer, vector(packetBytes)"
vector 82  Net80211test.host[3].lo0.lo  passedUpPk:vector(packetBytes)  ETV
attr interpolationmode  none
attr source  packetSentToUpper
attr title  "packets passed to higher layer, vector(packetBytes)"
vector 85  Net80211test.host[3].wlan[0].mac  rcvdPkFromHL:vector(packetBytes)  ETV
attr interpolationmode  none
attr source  packetReceivedFromUpper
attr title  "packets received from higher layer, vector(packetBytes)"
vector 75  Net80211test.host[3].udp  passedUpPk:vector(count)  ETV
attr interpolationmode  none
attr title  "packets passed up, vector(count)"
vector 69  Net80211test.host[3].udpApp[0]  rcvdPk:vector(packetBytes)  ETV
attr interpolationmode  none
attr source  rcvdPk
attr title  "packets received, vector(packetBytes)"
vector 71  Net80211test.host[3].udpApp[0]  rcvdPkLifetime:vector  ETV
attr interpolationmode  none
attr source  messageAge(rcvdPk)
attr title  "received packet lifetime, vector"
attr unit  s
vector 84  Net80211test.host[3].wlan[0].mac  sentDownPk:vector(packetBytes)  ETV
attr interpolationmode  none
attr source  packetSentToLower
attr title  "packets sent to lower layer, vector(packetBytes)"
vector 89  Net80211test.host[3].wlan[0].radio  transmissionState:vector  ETV
attr interpolationmode  sample-hold
attr source  transmissionStateChanged
attr title  "Radio transmission state, vector"
vector 17  Net80211test.host[0].wlan[0].mac  rcvdPkFromLL:vector(packetBytes)  ETV
attr interpolationmode  none
attr source  packetReceivedFromLower
attr title  "packets received from lower layer, vector(packetBytes)"
vector 14  Net80211test.host[0].wlan[0].mac  passedUpPk:vector(packetBytes)  ETV
attr interpolationmode  none
attr source  packetSentToUpper
attr title  "packets passed to higher layer, vector(packetBytes)"
vector 24  Net80211test.host[1].udpApp[0]  sentPk:vector(packetBytes)  ETV
attr interpolationmode  none
attr source  sentPk
attr title  "packets sent, vector(packetBytes)"
vector 27  Net80211test.host[1].udp  sentPk:vector(packetBytes)  ETV
attr interpolationmode  none
attr source  sentPk
attr title  "packets sent, vector(packetBytes)"
vector 35  Net80211test.host[1].lo0.lo  rcvdPkFromHL:vector(packetBytes)  ETV
attr interpolationmode  none
attr source  packetReceivedFromUpper
attr title  "packets received from higher layer, vector(packetBytes)"
vector 36  Net80211test.host[1].lo0.lo  passedUpPk:vector(packetBytes)  ETV
attr interpolationmode  none
attr source  packetSentToUpper
attr title  "packets passed to higher layer, vector(packetBytes)"
vector 39  Net80211test.host[1].wlan[0].mac  rcvdPkFromHL:vector(packetBytes)  ETV
attr interpolationmode  none
attr source  packetReceivedFromUpper
attr title  "packets received from higher layer, vector(packetBytes)"
vector 29  Net80211test.host[1].udp  passedUpPk:vector(count)  ETV
attr interpolationmode  none
attr title  "packets passed up, vector(count)"
vector 23  Net80211test.host[1].udpApp[0]  rcvdPk:vector(packetBytes)  ETV
attr interpolationmode  none
attr source  rcvdPk
attr title  "packets received, vector(packetBytes)"
vector 25  Net80211test.host[1].udpApp[0]  rcvdPkLifetime:vector  ETV
attr interpolationmode  none
attr source  messageAge(rcvdPk)
attr title  "received packet lifetime, vector"
attr unit  s
vector 38  Net80211test.host[1].wlan[0].mac  sentDownPk:vector(packetBytes)  ETV
attr interpolationmode  none
attr source  packetSentToLower
attr title  "packets sent to lower layer, vector(packetBytes)"
vector 43  Net80211test.host[1].wlan[0].radio  transmissionState:vector  ETV
attr interpolationmode  sample-hold
attr source  transmissionStateChanged
attr title  "Radio transmission state, vector"
vector 52  Net80211test.host[2].udp  passedUpPk:vector(count)  ETV
attr interpolationmode  none
attr title  "packets passed up, vector(count)"
vector 46  Net80211test.host[2].udpApp[0]  rcvdPk:vector(packetBytes)  ETV
attr interpolationmode  none
attr source  rcvdPk
attr title  "packets received, vector(packetBytes)"
vector 48  Net80211test.host[2].udpApp[0]  rcvdPkLifetime:vector  ETV
attr interpolationmode  none
attr source  messageAge(rcvdPk)
attr title  "received packet lifetime, vector"
attr unit  s
vector 47  Net80211test.host[2].udpApp[0]  sentPk:vector(packetBytes)  ETV
attr interpolationmode  none
attr source  sentPk
attr title  "packets sent, vector(packetBytes)"
vector 50  Net80211test.host[2].udp  sentPk:vector(packetBytes)  ETV
attr interpolationmode  none
attr source  sentPk
attr title  "packets sent, vector(packetBytes)"
vector 58  Net80211test.host[2].lo0.lo  rcvdPkFromHL:vector(packetBytes)  ETV
attr interpolationmode  none
attr source  packetReceivedFromUpper
attr title  "packets received from higher layer, vector(packetBytes)"
vector 59  Net80211test.host[2].lo0.lo  passedUpPk:vector(packetBytes)  ETV
attr interpolationmode  none
attr source  packetSentToUpper
attr title  "packets passed to higher layer, vector(packetBytes)"
vector 62  Net80211test.host[2].wlan[0].mac  rcvdPkFromHL:vector(packetBytes)  ETV
attr interpolationmode  none
attr source  packetReceivedFromUpper
attr title  "packets received from higher layer, vector(packetBytes)"
vector 61  Net80211test.host[2].wlan[0].mac  sentDownPk:vector(packetBytes)  ETV
attr interpolationmode  none
attr source  packetSentToLower
attr title  "packets sent to lower layer, vector(packetBytes)"
vector 66  Net80211test.host[2].wlan[0].radio  transmissionState:vector  ETV
attr interpolationmode  sample-hold
attr source  transmissionStateChanged
attr title  "Radio transmission state, vector"
0	15814 1761 271 4951 3.947009828233 20.947009828233 67 512 512 34304 17563648
1	17575 655 260 4942 3.947009828233 20.947009828233 25 512 512 12800 6553600
2	18230 2163 271 4951 3.947009828233 20.947009828233 67 0 0.000222868699 0.009339844177 2.0769707298592e-06
4	20393 655 263 4943 3.947009828233 20.947009828233 25 520 520 13000 6760000
5	21048 2567 269 4949 3.947009828233 20.947009828233 97 520 520 50440 26228800
6	23615 2461 269 4949 3.947009828233 20.947009828233 97 1 97 4753 308945
12	26076 680 265 4945 3.947009828233 20.947009828233 25 540 540 13500 7290000
13	26756 680 265 4945 3.947009828233 20.947009828233 25 540 540 13500 7290000
14	27436 1984 539 4932 5.720108709309 20.885003309668 72 576 576 41472 23887872
15	29420 680 272 4952 3.947009828233 20.947009828233 25 576 576 14400 8294400
16	30100 680 268 4948 3.947009828233 20.947009828233 25 576 576 14400 8294400
17	30780 1984 539 4932 5.720108709309 20.885003309668 72 576 576 41472 23887872
18	32764 1278 0 4959 0 20.947231828233 52 0 3 127 329
19	34042 4949 0 4959 0 20.947231828233 195 0 3 314 746
20	38991 2520 273 4959 3.947009828233 20.947231828233 100 0 2 100 150
21	41511 9 0 0 0 0 1 0 0 0 0
22	41520 13696 0 4959 0 20.947231828233 542 0 3 400 1100
23	55216 1697 575 4977 5.884780782412 20.947232373532 62 512 512 31744 16252928
24	56913 578 564 4901 5.884780782412 20.884780782412 21 512 512 10752 5505024
25	57491 2106 575 4977 5.884780782412 20.947232373532 62 0 0.000222866582 0.009116536019 2.0271049494413e-06
27	59597 578 567 4902 5.884780782412 20.884780782412 21 520 520 10920 5678400
28	60175 2658 292 4976 3.947231828233 20.947232373532 97 520 520 50440 26228800
29	62833 2427 573 4976 5.884780782412 20.947232373532 92 1 92 4278 263810
30	65260 120 292 549 3.947231828233 5.720108709309 5 1 5 15 55
35	65380 578 569 4904 5.884780782412 20.884780782412 21 540 540 11340 6123600
36	65958 578 569 4904 5.884780782412 20.884780782412 21 540 540 11340 6123600
37	66536 2080 283 4973 3.947231828233 20.947232373532 76 576 576 43776 25214976
38	68616 578 576 4911 5.884780782412 20.884780782412 21 576 576 12096 6967296
39	69194 578 572 4907 5.884780782412 20.884780782412 21 576 576 12096 6967296
40	69772 2080 283 4973 3.947231828233 20.947232373532 76 576 576 43776 25214976
41	71852 1090 0 4918 0 20.885002782412 44 0 3 107 277
42	72942 4937 0 4972 0 20.947232373532 195 0 3 326 782
43	77879 2144 577 4918 5.884780782412 20.885002782412 84 0 2 84 126
44	80023 9 0 0 0 0 1 0 0 0 0
45	80032 13108 0 4972 0 20.947232373532 518 0 3 336 924
46	93140 1837 1571 4965 9.220109008727 20.947232111969 66 512 512 33792 17301504
47	94977 614 1577 4864 9.352570675034 20.852570675034 22 512 512 11264 5767168
48	95591 2274 1571 4965 9.220109008727 20.947232111969 66 0 0.000222694557 0.009786620379 2.1767724425811e-06
50	97865 614 1578 4865 9.352570675034 20.852570675034 22 520 520 11440 5948800
51	98479 2662 293 4964 3.947231828233 20.947232111969 97 520 520 50440 26228800
52	101141 2431 592 4964 5.885002782412 20.947232111969 92 1 92 4278 263810
53	103572 120 293 550 3.947231828233 5.720108709309 5 1 5 15 55
58	103692 614 1580 4867 9.352570675034 20.852570675034 22 540 540 11880 6415200
59	104306 614 1580 4867 9.352570675034 20.852570675034 22 540 540 11880 6415200
60	104920 2048 284 4961 3.947231828233 20.947232111969 75 576 576 43200 24883200
61	106968 614 1587 4874 9.352570675034 20.852570675034 22 576 576 12672 7299072
62	107582 614 1583 4870 9.352570675034 20.852570675034 22 576 576 12672 7299072
63	108196 2048 284 4961 3.947231828233 20.947232111969 75 576 576 43200 24883200
64	110244 1158 0 4881 0 20.852792675034 46 0 3 112 290
65	111402 4945 0 4960 0 20.947232111969 195 0 3 323 773
66	116347 2280 1588 4881 9.352570675034 20.852792675034 88 0 2 88 132
67	118627 9 0 0 0 0 1 0 0 0 0
68	118636 13328 0 4960 0 20.947232111969 524 0 3 352 968
69	131964 2392 527 4688 5.719886709309 19.947232117638 87 512 512 44544 22806528
70	134356 799 516 4566 5.719886709309 19.719886709309 29 512 512 14848 7602176
71	135155 2958 527 4688 5.719886709309 19.947232117638 87 0 0.000222696882 0.012896852771 2.8677397445534e-06
73	138113 799 519 4567 5.719886709309 19.719886709309 29 520 520 15080 7841600
74	138912 2662 294 4970 3.947231828233 20.947232157188 97 520 520 50440 26228800
75	141574 2456 525 4970 5.719886709309 20.947232157188 93 1 93 4371 272459
76	144030 96 294 498 3.947231828233 5.447231828233 4 1 4 10 30
81	144126 799 521 4569 5.719886709309 19.719886709309 29 540 540 15660 8456400
82	144925 799 521 4569 5.719886709309 19.719886709309 29 540 540 15660 8456400
83	145724 1863 285 4967 3.947231828233 20.947232157188 68 576 576 39168 22560768
84	147587 799 528 4576 5.719886709309 19.719886709309 29 576 576 16704 9621504
85	148386 799 524 4572 5.719886709309 19.719886709309 29 576 576 16704 9621504
86	149185 1863 285 4967 3.947231828233 20.947232157188 68 576 576 39168 22560768
87	151048 1500 0 4583 0 19.720108709309 60 0 3 147 381
88	152548 4945 0 4966 0 20.947232157188 195 0 3 302 710
89	157493 2964 529 4583 5.719886709309 19.720108709309 116 0 2 116 174
90	160457 9 0 0 0 0 1 0 0 0 0
91	160466 14354 0 4966 0 20.947232157188 566 0 3 464 1276
92	174820 333 66 4691 1 20 20 0.066666666666667 1 18.040407903123 17.245078445877
93	175153 512 66 4691 1 20 20 0.30195419082724 1 13.610090524785 10.72463598904
94	175665 334 67 4692 1 20 20 0.036583811344806 1 17.780624601657 16.902785136331
96	175999 288 68 4693 1 20 20 0.74123645634162 1 19.483237731039 19.079247904244
98	176287 438 69 4694 1 20 20 0.00012746972594009 1 16.204971319312 14.228300830178
