version 2
run General-0-20161005-15:43:33-14169
attr configname General
attr datetime 20161005-15:43:33
attr experiment General
attr inifile omnetpp.ini
attr iterationvars ""
attr iterationvars2 $repetition=0
attr measurement ""
attr network Net80211test
attr processid 14169
attr repetition 0
attr replication #0
attr resultdir results
attr runnumber 0
attr seedset 0
param **.constraintAreaMaxX 600m
param **.constraintAreaMaxY 400m
param **.constraintAreaMaxZ 0m
param **.constraintAreaMinX 0m
param **.constraintAreaMinY 0m
param **.constraintAreaMinZ 0m
param **.host*.mobility.initFromDisplayString false
param **.host*.mobility.initialX "normal(300m, 50m)"
param **.host*.mobility.initialY "normal(200m, 50m)"
param **.host*.mobility.updateInterval 100ms
param **.host*.mobilityType "\"VirtualSpringMobility\""
param **.host[*].battery.flightHeight 1m
param **.host[*].battery.initialCapacity 55J
param **.host[*].battery.swapHeightFactor 0
param **.host[*].networkLayerType "\"IPv4ExtNetworkLayer\""
param **.host[*].udpType "\"UDPExt\""
param **.ip.forceBroadcast true
param **.udpApp[0].chargingStationNumber 1
param **.udpApp[0].checkRechargeTimer 1s
param **.udpApp[0].destAddresses "\"255.255.255.255\""
param **.udpApp[0].destPort 100
param **.udpApp[0].isCentralized true
param **.udpApp[0].localAddress "\"\""
param **.udpApp[0].localPort 100
param **.udpApp[0].messageLength 512B
param **.udpApp[0].receiveBroadcast true
param **.udpApp[0].schedulingType "\"STIMULUS\""
param **.udpApp[0].sendInterval 0.5s
param **.udpApp[0].startTime "truncnormal(5s, 1s)"
param **.wlan[*].bitrate 2Mbps
param **.wlan[*].mac.address "\"auto\""
param **.wlan[*].mac.cwMinBroadcast 31
param **.wlan[*].mac.cwMinData 7
param **.wlan[*].mac.maxQueueSize 14
param **.wlan[*].mac.retryLimit 7
param **.wlan[*].mac.rtsThresholdBytes 3000B
param **.wlan[*].macType "\"Ieee80211MacExt\""
param **.wlan[*].mgmt.frameCapacity 10
param **.wlan[*].mgmtType "\"Ieee80211MgmtAdhocExt\""
param **.wlan[*].radio.receiver.sensitivity -85dBm
param **.wlan[*].radio.receiver.snirThreshold 4dB
param **.wlan[*].radio.receiverType "\"Ieee80211ScalarReceiverExt\""
param **.wlan[*].radio.transmitter.power 100mW
param *.host[*].numUdpApps 1
param *.host[*].udpApp[*].typename "\"UDPBasicRecharge\""
param *.numHosts 4

vector 22  Net80211test.host[0].wlan[0].mac.ctn[0]  state:vector  ETV
attr interpolationmode  none
attr source  stateChanged
attr title  "contention state, vector"
vector 45  Net80211test.host[1].wlan[0].mac.ctn[0]  state:vector  ETV
attr interpolationmode  none
attr source  stateChanged
attr title  "contention state, vector"
vector 68  Net80211test.host[2].wlan[0].mac.ctn[0]  state:vector  ETV
attr interpolationmode  none
attr source  stateChanged
attr title  "contention state, vector"
vector 91  Net80211test.host[3].wlan[0].mac.ctn[0]  state:vector  ETV
attr interpolationmode  none
attr source  stateChanged
attr title  "contention state, vector"
vector 18  Net80211test.host[0].wlan[0].radio  radioMode:vector  ETV
attr interpolationmode  sample-hold
attr source  radioModeChanged
attr title  "Radio mode, vector"
vector 21  Net80211test.host[0].wlan[0].radio  radioChannel:vector  ETV
attr interpolationmode  sample-hold
attr source  radioChannelChanged
attr title  "Radio channel, vector"
vector 41  Net80211test.host[1].wlan[0].radio  radioMode:vector  ETV
attr interpolationmode  sample-hold
attr source  radioModeChanged
attr title  "Radio mode, vector"
vector 44  Net80211test.host[1].wlan[0].radio  radioChannel:vector  ETV
attr interpolationmode  sample-hold
attr source  radioChannelChanged
attr title  "Radio channel, vector"
vector 64  Net80211test.host[2].wlan[0].radio  radioMode:vector  ETV
attr interpolationmode  sample-hold
attr source  radioModeChanged
attr title  "Radio mode, vector"
vector 67  Net80211test.host[2].wlan[0].radio  radioChannel:vector  ETV
attr interpolationmode  sample-hold
attr source  radioChannelChanged
attr title  "Radio channel, vector"
vector 87  Net80211test.host[3].wlan[0].radio  radioMode:vector  ETV
attr interpolationmode  sample-hold
attr source  radioModeChanged
attr title  "Radio mode, vector"
vector 90  Net80211test.host[3].wlan[0].radio  radioChannel:vector  ETV
attr interpolationmode  sample-hold
attr source  radioChannelChanged
attr title  "Radio channel, vector"
vector 19  Net80211test.host[0].wlan[0].radio  receptionState:vector  ETV
attr interpolationmode  sample-hold
attr source  receptionStateChanged
attr title  "Radio reception state, vector"
vector 42  Net80211test.host[1].wlan[0].radio  receptionState:vector  ETV
attr interpolationmode  sample-hold
attr source  receptionStateChanged
attr title  "Radio reception state, vector"
vector 65  Net80211test.host[2].wlan[0].radio  receptionState:vector  ETV
attr interpolationmode  sample-hold
attr source  receptionStateChanged
attr title  "Radio reception state, vector"
vector 88  Net80211test.host[3].wlan[0].radio  receptionState:vector  ETV
attr interpolationmode  sample-hold
attr source  receptionStateChanged
attr title  "Radio reception state, vector"
vector 92  Net80211test.host[0].udpApp[0]  personalCoverage  ETV
vector 93  Net80211test.host[0].udpApp[0]  totalCoverage  ETV
vector 94  Net80211test.host[0].udpApp[0]  activeNodes  ETV
vector 95  Net80211test.host[0].udpApp[0]  rechargingNodes  ETV
vector 96  Net80211test.host[1].udpApp[0]  personalCoverage  ETV
vector 100  Net80211test.host[2].udpApp[0]  personalCoverage  ETV
vector 104  Net80211test.host[3].udpApp[0]  personalCoverage  ETV
vector 1  Net80211test.host[0].udpApp[0]  sentPk:vector(packetBytes)  ETV
attr interpolationmode  none
attr source  sentPk
attr title  "packets sent, vector(packetBytes)"
vector 4  Net80211test.host[0].udp  sentPk:vector(packetBytes)  ETV
attr interpolationmode  none
attr source  sentPk
attr title  "packets sent, vector(packetBytes)"
vector 12  Net80211test.host[0].lo0.lo  rcvdPkFromHL:vector(packetBytes)  ETV
attr interpolationmode  none
attr source  packetReceivedFromUpper
attr title  "packets received from higher layer, vector(packetBytes)"
vector 13  Net80211test.host[0].lo0.lo  passedUpPk:vector(packetBytes)  ETV
attr interpolationmode  none
attr source  packetSentToUpper
attr title  "packets passed to higher layer, vector(packetBytes)"
vector 16  Net80211test.host[0].wlan[0].mac  rcvdPkFromHL:vector(packetBytes)  ETV
attr interpolationmode  none
attr source  packetReceivedFromUpper
attr title  "packets received from higher layer, vector(packetBytes)"
vector 5  Net80211test.host[0].udp  rcvdPk:vector(packetBytes)  ETV
attr interpolationmode  none
attr source  rcvdPk
attr title  "packets received, vector(packetBytes)"
vector 6  Net80211test.host[0].udp  passedUpPk:vector(count)  ETV
attr interpolationmode  none
attr title  "packets passed up, vector(count)"
vector 0  Net80211test.host[0].udpApp[0]  rcvdPk:vector(packetBytes)  ETV
attr interpolationmode  none
attr source  rcvdPk
attr title  "packets received, vector(packetBytes)"
vector 2  Net80211test.host[0].udpApp[0]  rcvdPkLifetime:vector  ETV
attr interpolationmode  none
attr source  messageAge(rcvdPk)
attr title  "received packet lifetime, vector"
attr unit  s
vector 15  Net80211test.host[0].wlan[0].mac  sentDownPk:vector(packetBytes)  ETV
attr interpolationmode  none
attr source  packetSentToLower
attr title  "packets sent to lower layer, vector(packetBytes)"
vector 20  Net80211test.host[0].wlan[0].radio  transmissionState:vector  ETV
attr interpolationmode  sample-hold
attr source  transmissionStateChanged
attr title  "Radio transmission state, vector"
vector 40  Net80211test.host[1].wlan[0].mac  rcvdPkFromLL:vector(packetBytes)  ETV
attr interpolationmode  none
attr source  packetReceivedFromLower
attr title  "packets received from lower layer, vector(packetBytes)"
vector 37  Net80211test.host[1].wlan[0].mac  passedUpPk:vector(packetBytes)  ETV
attr interpolationmode  none
attr source  packetSentToUpper
attr title  "packets passed to higher layer, vector(packetBytes)"
vector 28  Net80211test.host[1].udp  rcvdPk:vector(packetBytes)  ETV
attr interpolationmode  none
attr source  rcvdPk
attr title  "packets received, vector(packetBytes)"
vector 30  Net80211test.host[1].udp  droppedPkWrongPort:vector(count)  ETV
attr interpolationmode  none
attr title  "packets dropped (wrong port), vector(count)"
vector 63  Net80211test.host[2].wlan[0].mac  rcvdPkFromLL:vector(packetBytes)  ETV
attr interpolationmode  none
attr source  packetReceivedFromLower
attr title  "packets received from lower layer, vector(packetBytes)"
vector 60  Net80211test.host[2].wlan[0].mac  passedUpPk:vector(packetBytes)  ETV
attr interpolationmode  none
attr source  packetSentToUpper
attr title  "packets passed to higher layer, vector(packetBytes)"
vector 51  Net80211test.host[2].udp  rcvdPk:vector(packetBytes)  ETV
attr interpolationmode  none
attr source  rcvdPk
attr title  "packets received, vector(packetBytes)"
vector 53  Net80211test.host[2].udp  droppedPkWrongPort:vector(count)  ETV
attr interpolationmode  none
attr title  "packets dropped (wrong port), vector(count)"
vector 86  Net80211test.host[3].wlan[0].mac  rcvdPkFromLL:vector(packetBytes)  ETV
attr interpolationmode  none
attr source  packetReceivedFromLower
attr title  "packets received from lower layer, vector(packetBytes)"
vector 83  Net80211test.host[3].wlan[0].mac  passedUpPk:vector(packetBytes)  ETV
attr interpolationmode  none
attr source  packetSentToUpper
attr title  "packets passed to higher layer, vector(packetBytes)"
vector 74  Net80211test.host[3].udp  rcvdPk:vector(packetBytes)  ETV
attr interpolationmode  none
attr source  rcvdPk
attr title  "packets received, vector(packetBytes)"
vector 76  Net80211test.host[3].udp  droppedPkWrongPort:vector(count)  ETV
attr interpolationmode  none
attr title  "packets dropped (wrong port), vector(count)"
vector 70  Net80211test.host[3].udpApp[0]  sentPk:vector(packetBytes)  ETV
attr interpolationmode  none
attr source  sentPk
attr title  "packets sent, vector(packetBytes)"
vector 73  Net80211test.host[3].udp  sentPk:vector(packetBytes)  ETV
attr interpolationmode  none
attr source  sentPk
attr title  "packets sent, vector(packetBytes)"
vector 81  Net80211test.host[3].lo0.lo  rcvdPkFromHL:vector(packetBytes)  ETV
attr interpolationmode  none
attr source  packetReceivedFromUpper
attr title  "packets received from higher layer, vector(packetBytes)"
vector 82  Net80211test.host[3].lo0.lo  passedUpPk:vector(packetBytes)  ETV
attr interpolationmode  none
attr source  packetSentToUpper
attr title  "packets passed to higher layer, vector(packetBytes)"
vector 85  Net80211test.host[3].wlan[0].mac  rcvdPkFromHL:vector(packetBytes)  ETV
attr interpolationmode  none
attr source  packetReceivedFromUpper
attr title  "packets received from higher layer, vector(packetBytes)"
vector 75  Net80211test.host[3].udp  passedUpPk:vector(count)  ETV
attr interpolationmode  none
attr title  "packets passed up, vector(count)"
vector 69  Net80211test.host[3].udpApp[0]  rcvdPk:vector(packetBytes)  ETV
attr interpolationmode  none
attr source  rcvdPk
attr title  "packets received, vector(packetBytes)"
vector 71  Net80211test.host[3].udpApp[0]  rcvdPkLifetime:vector  ETV
attr interpolationmode  none
attr source  messageAge(rcvdPk)
attr title  "received packet lifetime, vector"
attr unit  s
vector 84  Net80211test.host[3].wlan[0].mac  sentDownPk:vector(packetBytes)  ETV
attr interpolationmode  none
attr source  packetSentToLower
attr title  "packets sent to lower layer, vector(packetBytes)"
vector 89  Net80211test.host[3].wlan[0].radio  transmissionState:vector  ETV
attr interpolationmode  sample-hold
attr source  transmissionStateChanged
attr title  "Radio transmission state, vector"
vector 17  Net80211test.host[0].wlan[0].mac  rcvdPkFromLL:vector(packetBytes)  ETV
attr interpolationmode  none
attr source  packetReceivedFromLower
attr title  "packets received from lower layer, vector(packetBytes)"
vector 14  Net80211test.host[0].wlan[0].mac  passedUpPk:vector(packetBytes)  ETV
attr interpolationmode  none
attr source  packetSentToUpper
attr title  "packets passed to higher layer, vector(packetBytes)"
vector 47  Net80211test.host[2].udpApp[0]  sentPk:vector(packetBytes)  ETV
attr interpolationmode  none
attr source  sentPk
attr title  "packets sent, vector(packetBytes)"
vector 50  Net80211test.host[2].udp  sentPk:vector(packetBytes)  ETV
attr interpolationmode  none
attr source  sentPk
attr title  "packets sent, vector(packetBytes)"
vector 58  Net80211test.host[2].lo0.lo  rcvdPkFromHL:vector(packetBytes)  ETV
attr interpolationmode  none
attr source  packetReceivedFromUpper
attr title  "packets received from higher layer, vector(packetBytes)"
vector 59  Net80211test.host[2].lo0.lo  passedUpPk:vector(packetBytes)  ETV
attr interpolationmode  none
attr source  packetSentToUpper
attr title  "packets passed to higher layer, vector(packetBytes)"
vector 62  Net80211test.host[2].wlan[0].mac  rcvdPkFromHL:vector(packetBytes)  ETV
attr interpolationmode  none
attr source  packetReceivedFromUpper
attr title  "packets received from higher layer, vector(packetBytes)"
vector 52  Net80211test.host[2].udp  passedUpPk:vector(count)  ETV
attr interpolationmode  none
attr title  "packets passed up, vector(count)"
vector 46  Net80211test.host[2].udpApp[0]  rcvdPk:vector(packetBytes)  ETV
attr interpolationmode  none
attr source  rcvdPk
attr title  "packets received, vector(packetBytes)"
vector 48  Net80211test.host[2].udpApp[0]  rcvdPkLifetime:vector  ETV
attr interpolationmode  none
attr source  messageAge(rcvdPk)
attr title  "received packet lifetime, vector"
attr unit  s
vector 61  Net80211test.host[2].wlan[0].mac  sentDownPk:vector(packetBytes)  ETV
attr interpolationmode  none
attr source  packetSentToLower
attr title  "packets sent to lower layer, vector(packetBytes)"
vector 66  Net80211test.host[2].wlan[0].radio  transmissionState:vector  ETV
attr interpolationmode  sample-hold
attr source  transmissionStateChanged
attr title  "Radio transmission state, vector"
vector 24  Net80211test.host[1].udpApp[0]  sentPk:vector(packetBytes)  ETV
attr interpolationmode  none
attr source  sentPk
attr title  "packets sent, vector(packetBytes)"
vector 27  Net80211test.host[1].udp  sentPk:vector(packetBytes)  ETV
attr interpolationmode  none
attr source  sentPk
attr title  "packets sent, vector(packetBytes)"
vector 35  Net80211test.host[1].lo0.lo  rcvdPkFromHL:vector(packetBytes)  ETV
attr interpolationmode  none
attr source  packetReceivedFromUpper
attr title  "packets received from higher layer, vector(packetBytes)"
vector 36  Net80211test.host[1].lo0.lo  passedUpPk:vector(packetBytes)  ETV
attr interpolationmode  none
attr source  packetSentToUpper
attr title  "packets passed to higher layer, vector(packetBytes)"
vector 39  Net80211test.host[1].wlan[0].mac  rcvdPkFromHL:vector(packetBytes)  ETV
attr interpolationmode  none
attr source  packetReceivedFromUpper
attr title  "packets received from higher layer, vector(packetBytes)"
vector 29  Net80211test.host[1].udp  passedUpPk:vector(count)  ETV
attr interpolationmode  none
attr title  "packets passed up, vector(count)"
vector 23  Net80211test.host[1].udpApp[0]  rcvdPk:vector(packetBytes)  ETV
attr interpolationmode  none
attr source  rcvdPk
attr title  "packets received, vector(packetBytes)"
vector 25  Net80211test.host[1].udpApp[0]  rcvdPkLifetime:vector  ETV
attr interpolationmode  none
attr source  messageAge(rcvdPk)
attr title  "received packet lifetime, vector"
attr unit  s
vector 38  Net80211test.host[1].wlan[0].mac  sentDownPk:vector(packetBytes)  ETV
attr interpolationmode  none
attr source  packetSentToLower
attr title  "packets sent to lower layer, vector(packetBytes)"
vector 43  Net80211test.host[1].wlan[0].radio  transmissionState:vector  ETV
attr interpolationmode  sample-hold
attr source  transmissionStateChanged
attr title  "Radio transmission state, vector"
0	283	3.947009828233	512
0	353	4.447009828233	512
0	418	4.947009828233	512
0	489	5.447009828233	512
0	562	5.720109433315	512
0	608	5.852793073576	512
0	640	5.885003023769	512
0	667	5.947009828233	512
0	750	6.220109428731	512
0	791	6.352793071428	512
0	822	6.38500303678	512
0	853	6.447009828233	512
0	928	6.720109410466	512
0	974	6.852793073011	512
0	1005	6.885003068485	512
0	1032	6.947009828233	512
0	1114	7.220109389215	512
0	1155	7.352793075159	512
0	1186	7.385003093664	512
0	1218	7.447009828233	512
0	1292	7.720109373506	512
0	1337	7.85279307105	512
0	1369	7.885003098198	512
0	1396	7.947009828233	512
0	1478	8.220109364009	512
0	1519	8.35279305788	512
0	1550	8.385003081835	512
0	1581	8.447009828233	512
0	1655	8.720109359978	512
0	1702	8.852793039616	512
0	1733	8.885003059499	512
0	1760	8.947009828233	512
0	1842	9.220109357206	512
0	1883	9.352793023869	512
0	1914	9.385003046463	512
0	1945	9.447009828233	512
0	2019	9.72010935124	512
0	2066	9.852793012338	512
0	2097	9.88500304806	512
0	2125	9.947009828233	512
0	2206	10.220109340966	512
0	2247	10.3527930043	512
0	2278	10.385003060814	512
0	2309	10.447009828233	512
0	2383	10.720109327538	512
0	2428	10.852792998366	512
0	2459	10.88500307452	512
0	2488	10.947009828233	512
0	2570	11.220109314725	512
0	2611	11.35279299318	512
0	2642	11.385003081301	512
0	2673	11.447009828233	512
0	2747	11.72010930461	512
0	2793	11.852792987539	512
0	2824	11.885003079061	512
0	2851	11.947009828233	512
0	2934	12.220109297655	512
0	2975	12.352792980279	512
0	3006	12.385003070846	512
0	3037	12.447009828233	512
0	3111	12.720109292106	512
0	3157	12.852792971765	512
0	3188	12.885003062753	512
0	3215	12.947009828233	512
0	3297	13.220109286971	512
0	3333	13.352792963706	512
0	3370	13.385003058671	512
0	3401	13.447009828233	512
0	3474	13.720109281538	512
0	3520	13.852792956668	512
1	272	3.947009828233	512
1	344	4.447009828233	512
1	409	4.947009828233	512
1	480	5.447009828233	512
1	658	5.947009828233	512
1	844	6.447009828233	512
1	1023	6.947009828233	512
1	1209	7.447009828233	512
1	1387	7.947009828233	512
1	1572	8.447009828233	512
1	1751	8.947009828233	512
1	1936	9.447009828233	512
1	2116	9.947009828233	512
1	2300	10.447009828233	512
1	2479	10.947009828233	512
1	2664	11.447009828233	512
1	2842	11.947009828233	512
1	3028	12.447009828233	512
1	3206	12.947009828233	512
1	3392	13.447009828233	512
2	283	3.947009828233	0
2	353	4.447009828233	0
2	418	4.947009828233	0
2	489	5.447009828233	0
2	562	5.720109433315	0.000222724006
2	608	5.852793073576	0.000222398542
2	640	5.885003023769	0.000222241357
2	667	5.947009828233	0
2	750	6.220109428731	0.000222719422
2	791	6.352793071428	0.000222396394
2	822	6.38500303678	0.000222254368
2	853	6.447009828233	0
2	928	6.720109410466	0.000222701157
2	974	6.852793073011	0.000222397977
2	1005	6.885003068485	0.000222286073
2	1032	6.947009828233	0
2	1114	7.220109389215	0.000222679906
2	1155	7.352793075159	0.000222400125
2	1186	7.385003093664	0.000222311252
2	1218	7.447009828233	0
2	1292	7.720109373506	0.000222664197
2	1337	7.85279307105	0.000222396016
2	1369	7.885003098198	0.000222315786
2	1396	7.947009828233	0
2	1478	8.220109364009	0.0002226547
2	1519	8.35279305788	0.000222382846
2	1550	8.385003081835	0.000222299423
2	1581	8.447009828233	0
2	1655	8.720109359978	0.000222650669
2	1702	8.852793039616	0.000222364582
2	1733	8.885003059499	0.000222277087
2	1760	8.947009828233	0
2	1842	9.220109357206	0.000222647897
2	1883	9.352793023869	0.000222348835
2	1914	9.385003046463	0.000222264051
2	1945	9.447009828233	0
2	2019	9.72010935124	0.000222641931
2	2066	9.852793012338	0.000222337304
2	2097	9.88500304806	0.000222265648
2	2125	9.947009828233	0
2	2206	10.220109340966	0.000222631657
2	2247	10.3527930043	0.000222329266
2	2278	10.385003060814	0.000222278402
2	2309	10.447009828233	0
2	2383	10.720109327538	0.000222618229
2	2428	10.852792998366	0.000222323332
2	2459	10.88500307452	0.000222292108
2	2488	10.947009828233	0
2	2570	11.220109314725	0.000222605416
2	2611	11.35279299318	0.000222318146
2	2642	11.385003081301	0.000222298889
2	2673	11.447009828233	0
2	2747	11.72010930461	0.000222595301
2	2793	11.852792987539	0.000222312505
2	2824	11.885003079061	0.000222296649
2	2851	11.947009828233	0
2	2934	12.220109297655	0.000222588346
2	2975	12.352792980279	0.000222305245
2	3006	12.385003070846	0.000222288434
2	3037	12.447009828233	0
2	3111	12.720109292106	0.000222582797
2	3157	12.852792971765	0.000222296731
2	3188	12.885003062753	0.000222280341
2	3215	12.947009828233	0
2	3297	13.220109286971	0.000222577662
2	3333	13.352792963706	0.000222288672
2	3370	13.385003058671	0.000222276259
2	3401	13.447009828233	0
2	3474	13.720109281538	0.000222572229
2	3520	13.852792956668	0.000222281634
4	275	3.947009828233	520
4	345	4.447009828233	520
4	410	4.947009828233	520
4	481	5.447009828233	520
4	659	5.947009828233	520
4	845	6.447009828233	520
4	1024	6.947009828233	520
4	1210	7.447009828233	520
4	1388	7.947009828233	520
4	1573	8.447009828233	520
4	1752	8.947009828233	520
4	1937	9.447009828233	520
4	2117	9.947009828233	520
4	2301	10.447009828233	520
4	2480	10.947009828233	520
4	2665	11.447009828233	520
4	2843	11.947009828233	520
4	3029	12.447009828233	520
4	3207	12.947009828233	520
4	3393	13.447009828233	520
5	281	3.947009828233	520
5	351	4.447009828233	520
5	416	4.947009828233	520
5	487	5.447009828233	520
5	561	5.720109433315	520
5	607	5.852793073576	520
5	639	5.885003023769	520
5	665	5.947009828233	520
5	749	6.220109428731	520
5	790	6.352793071428	520
5	821	6.38500303678	520
5	851	6.447009828233	520
5	927	6.720109410466	520
5	973	6.852793073011	520
5	1004	6.885003068485	520
5	1030	6.947009828233	520
5	1113	7.220109389215	520
5	1154	7.352793075159	520
5	1185	7.385003093664	520
5	1216	7.447009828233	520
5	1291	7.720109373506	520
5	1336	7.85279307105	520
5	1368	7.885003098198	520
5	1394	7.947009828233	520
5	1477	8.220109364009	520
5	1518	8.35279305788	520
5	1549	8.385003081835	520
5	1579	8.447009828233	520
5	1654	8.720109359978	520
5	1701	8.852793039616	520
5	1732	8.885003059499	520
5	1758	8.947009828233	520
5	1841	9.220109357206	520
5	1882	9.352793023869	520
5	1913	9.385003046463	520
5	1943	9.447009828233	520
5	2018	9.72010935124	520
5	2065	9.852793012338	520
5	2096	9.88500304806	520
5	2123	9.947009828233	520
5	2205	10.220109340966	520
5	2246	10.3527930043	520
5	2277	10.385003060814	520
5	2307	10.447009828233	520
5	2382	10.720109327538	520
5	2427	10.852792998366	520
5	2458	10.88500307452	520
5	2486	10.947009828233	520
5	2569	11.220109314725	520
5	2610	11.35279299318	520
5	2641	11.385003081301	520
5	2671	11.447009828233	520
5	2746	11.72010930461	520
5	2792	11.852792987539	520
5	2823	11.885003079061	520
5	2849	11.947009828233	520
5	2933	12.220109297655	520
5	2974	12.352792980279	520
5	3005	12.385003070846	520
5	3035	12.447009828233	520
5	3110	12.720109292106	520
5	3156	12.852792971765	520
5	3187	12.885003062753	520
5	3213	12.947009828233	520
5	3296	13.220109286971	520
5	3332	13.352792963706	520
5	3369	13.385003058671	520
5	3399	13.447009828233	520
5	3473	13.720109281538	520
5	3519	13.852792956668	520
6	281	3.947009828233	1
6	351	4.447009828233	2
6	416	4.947009828233	3
6	487	5.447009828233	4
6	561	5.720109433315	5
6	607	5.852793073576	6
6	639	5.885003023769	7
6	665	5.947009828233	8
6	749	6.220109428731	9
6	790	6.352793071428	10
6	821	6.38500303678	11
6	851	6.447009828233	12
6	927	6.720109410466	13
6	973	6.852793073011	14
6	1004	6.885003068485	15
6	1030	6.947009828233	16
6	1113	7.220109389215	17
6	1154	7.352793075159	18
6	1185	7.385003093664	19
6	1216	7.447009828233	20
6	1291	7.720109373506	21
6	1336	7.85279307105	22
6	1368	7.885003098198	23
6	1394	7.947009828233	24
6	1477	8.220109364009	25
6	1518	8.35279305788	26
6	1549	8.385003081835	27
6	1579	8.447009828233	28
6	1654	8.720109359978	29
6	1701	8.852793039616	30
6	1732	8.885003059499	31
6	1758	8.947009828233	32
6	1841	9.220109357206	33
6	1882	9.352793023869	34
6	1913	9.385003046463	35
6	1943	9.447009828233	36
6	2018	9.72010935124	37
6	2065	9.852793012338	38
6	2096	9.88500304806	39
6	2123	9.947009828233	40
6	2205	10.220109340966	41
6	2246	10.3527930043	42
6	2277	10.385003060814	43
6	2307	10.447009828233	44
6	2382	10.720109327538	45
6	2427	10.852792998366	46
6	2458	10.88500307452	47
6	2486	10.947009828233	48
6	2569	11.220109314725	49
6	2610	11.35279299318	50
6	2641	11.385003081301	51
6	2671	11.447009828233	52
6	2746	11.72010930461	53
6	2792	11.852792987539	54
6	2823	11.885003079061	55
6	2849	11.947009828233	56
6	2933	12.220109297655	57
6	2974	12.352792980279	58
6	3005	12.385003070846	59
6	3035	12.447009828233	60
6	3110	12.720109292106	61
6	3156	12.852792971765	62
6	3187	12.885003062753	63
6	3213	12.947009828233	64
6	3296	13.220109286971	65
6	3332	13.352792963706	66
6	3369	13.385003058671	67
6	3399	13.447009828233	68
6	3473	13.720109281538	69
6	3519	13.852792956668	70
12	277	3.947009828233	540
12	347	4.447009828233	540
12	412	4.947009828233	540
12	483	5.447009828233	540
12	661	5.947009828233	540
12	847	6.447009828233	540
12	1026	6.947009828233	540
12	1212	7.447009828233	540
12	1390	7.947009828233	540
12	1575	8.447009828233	540
12	1754	8.947009828233	540
12	1939	9.447009828233	540
12	2119	9.947009828233	540
12	2303	10.447009828233	540
12	2482	10.947009828233	540
12	2667	11.447009828233	540
12	2845	11.947009828233	540
12	3031	12.447009828233	540
12	3209	12.947009828233	540
12	3395	13.447009828233	540
13	277	3.947009828233	540
13	347	4.447009828233	540
13	412	4.947009828233	540
13	483	5.447009828233	540
13	661	5.947009828233	540
13	847	6.447009828233	540
13	1026	6.947009828233	540
13	1212	7.447009828233	540
13	1390	7.947009828233	540
13	1575	8.447009828233	540
13	1754	8.947009828233	540
13	1939	9.447009828233	540
13	2119	9.947009828233	540
13	2303	10.447009828233	540
13	2482	10.947009828233	540
13	2667	11.447009828233	540
13	2845	11.947009828233	540
13	3031	12.447009828233	540
13	3209	12.947009828233	540
13	3395	13.447009828233	540
14	558	5.720109433315	576
14	604	5.852793073576	576
14	636	5.885003023769	576
14	746	6.220109428731	576
14	787	6.352793071428	576
14	818	6.38500303678	576
14	924	6.720109410466	576
14	970	6.852793073011	576
14	1001	6.885003068485	576
14	1110	7.220109389215	576
14	1151	7.352793075159	576
14	1182	7.385003093664	576
14	1288	7.720109373506	576
14	1333	7.85279307105	576
14	1365	7.885003098198	576
14	1474	8.220109364009	576
14	1515	8.35279305788	576
14	1546	8.385003081835	576
14	1651	8.720109359978	576
14	1698	8.852793039616	576
14	1729	8.885003059499	576
14	1838	9.220109357206	576
14	1879	9.352793023869	576
14	1910	9.385003046463	576
14	2015	9.72010935124	576
14	2062	9.852793012338	576
14	2093	9.88500304806	576
14	2202	10.220109340966	576
14	2243	10.3527930043	576
14	2274	10.385003060814	576
14	2379	10.720109327538	576
14	2424	10.852792998366	576
14	2455	10.88500307452	576
14	2566	11.220109314725	576
14	2607	11.35279299318	576
14	2638	11.385003081301	576
14	2743	11.72010930461	576
14	2789	11.852792987539	576
14	2820	11.885003079061	576
14	2930	12.220109297655	576
14	2971	12.352792980279	576
14	3002	12.385003070846	576
14	3107	12.720109292106	576
14	3153	12.852792971765	576
14	3184	12.885003062753	576
14	3293	13.220109286971	576
14	3329	13.352792963706	576
14	3366	13.385003058671	576
14	3470	13.720109281538	576
14	3516	13.852792956668	576
15	284	3.947009828233	576
15	354	4.447009828233	576
15	419	4.947009828233	576
15	490	5.447009828233	576
15	668	5.947009828233	576
15	854	6.447009828233	576
15	1033	6.947009828233	576
15	1219	7.447009828233	576
15	1397	7.947009828233	576
15	1582	8.447009828233	576
15	1761	8.947009828233	576
15	1946	9.447009828233	576
15	2126	9.947009828233	576
15	2310	10.447009828233	576
15	2489	10.947009828233	576
15	2674	11.447009828233	576
15	2852	11.947009828233	576
15	3038	12.447009828233	576
15	3216	12.947009828233	576
15	3402	13.447009828233	576
16	280	3.947009828233	576
16	350	4.447009828233	576
16	415	4.947009828233	576
16	486	5.447009828233	576
16	664	5.947009828233	576
16	850	6.447009828233	576
16	1029	6.947009828233	576
16	1215	7.447009828233	576
16	1393	7.947009828233	576
16	1578	8.447009828233	576
16	1757	8.947009828233	576
16	1942	9.447009828233	576
16	2122	9.947009828233	576
16	2306	10.447009828233	576
16	2485	10.947009828233	576
16	2670	11.447009828233	576
16	2848	11.947009828233	576
16	3034	12.447009828233	576
16	3212	12.947009828233	576
16	3398	13.447009828233	576
17	558	5.720109433315	576
17	604	5.852793073576	576
17	636	5.885003023769	576
17	746	6.220109428731	576
17	787	6.352793071428	576
17	818	6.38500303678	576
17	924	6.720109410466	576
17	970	6.852793073011	576
17	1001	6.885003068485	576
17	1110	7.220109389215	576
17	1151	7.352793075159	576
17	1182	7.385003093664	576
17	1288	7.720109373506	576
17	1333	7.85279307105	576
17	1365	7.885003098198	576
17	1474	8.220109364009	576
17	1515	8.35279305788	576
17	1546	8.385003081835	576
17	1651	8.720109359978	576
17	1698	8.852793039616	576
17	1729	8.885003059499	576
17	1838	9.220109357206	576
17	1879	9.352793023869	576
17	1910	9.385003046463	576
17	2015	9.72010935124	576
17	2062	9.852793012338	576
17	2093	9.88500304806	576
17	2202	10.220109340966	576
17	2243	10.3527930043	576
17	2274	10.385003060814	576
17	2379	10.720109327538	576
17	2424	10.852792998366	576
17	2455	10.88500307452	576
17	2566	11.220109314725	576
17	2607	11.35279299318	576
17	2638	11.385003081301	576
17	2743	11.72010930461	576
17	2789	11.852792987539	576
17	2820	11.885003079061	576
17	2930	12.220109297655	576
17	2971	12.352792980279	576
17	3002	12.385003070846	576
17	3107	12.720109292106	576
17	3153	12.852792971765	576
17	3184	12.885003062753	576
17	3293	13.220109286971	576
17	3329	13.352792963706	576
17	3366	13.385003058671	576
17	3470	13.720109281538	576
17	3516	13.852792956668	576
18	0	0	0
18	0	0	2
18	285	3.947009828233	3
18	291	3.947231828233	2
18	355	4.447009828233	3
18	361	4.447231828233	2
18	420	4.947009828233	3
18	426	4.947231828233	2
18	491	5.447009828233	3
18	497	5.447231828233	2
18	669	5.947009828233	3
18	675	5.947231828233	2
18	855	6.447009828233	3
18	861	6.447231828233	2
18	1034	6.947009828233	3
18	1040	6.947231828233	2
18	1220	7.447009828233	3
18	1226	7.447231828233	2
18	1398	7.947009828233	3
18	1404	7.947231828233	2
18	1583	8.447009828233	3
18	1589	8.447231828233	2
18	1762	8.947009828233	3
18	1768	8.947231828233	2
18	1947	9.447009828233	3
18	1953	9.447231828233	2
18	2127	9.947009828233	3
18	2133	9.947231828233	2
18	2311	10.447009828233	3
18	2317	10.447231828233	2
18	2490	10.947009828233	3
18	2496	10.947231828233	2
18	2675	11.447009828233	3
18	2681	11.447231828233	2
18	2853	11.947009828233	3
18	2859	11.947231828233	2
18	3039	12.447009828233	3
18	3045	12.447231828233	2
18	3217	12.947009828233	3
18	3223	12.947231828233	2
18	3403	13.447009828233	3
18	3409	13.447231828233	2
19	0	0	1
19	285	3.947009828233	0
19	291	3.947231828233	1
19	355	4.447009828233	0
19	361	4.447231828233	1
19	420	4.947009828233	0
19	426	4.947231828233	1
19	491	5.447009828233	0
19	497	5.447231828233	1
19	548	5.719887433315	3
19	557	5.720109433315	1
19	593	5.852571073576	3
19	603	5.852793073576	1
19	630	5.884781023769	3
19	635	5.885003023769	1
19	669	5.947009828233	0
19	675	5.947231828233	1
19	735	6.219887428731	3
19	745	6.220109428731	1
19	776	6.352571071428	3
19	786	6.352793071428	1
19	812	6.38478103678	3
19	817	6.38500303678	1
19	855	6.447009828233	0
19	861	6.447231828233	1
19	913	6.719887410466	3
19	923	6.720109410466	1
19	959	6.852571073011	3
19	969	6.852793073011	1
19	995	6.884781068485	3
19	1000	6.885003068485	1
19	1034	6.947009828233	0
19	1040	6.947231828233	1
19	1099	7.219887389215	3
19	1109	7.220109389215	1
19	1140	7.352571075159	3
19	1150	7.352793075159	1
19	1176	7.384781093664	3
19	1181	7.385003093664	1
19	1220	7.447009828233	0
19	1226	7.447231828233	1
19	1277	7.719887373506	3
19	1287	7.720109373506	1
19	1322	7.85257107105	3
19	1332	7.85279307105	1
19	1359	7.884781098198	3
19	1364	7.885003098198	1
19	1398	7.947009828233	0
19	1404	7.947231828233	1
19	1463	8.219887364009	3
19	1473	8.220109364009	1
19	1504	8.35257105788	3
19	1514	8.35279305788	1
19	1540	8.384781081835	3
19	1545	8.385003081835	1
19	1583	8.447009828233	0
19	1589	8.447231828233	1
19	1640	8.719887359978	3
19	1650	8.720109359978	1
19	1687	8.852571039616	3
19	1697	8.852793039616	1
19	1723	8.884781059499	3
19	1728	8.885003059499	1
19	1762	8.947009828233	0
19	1768	8.947231828233	1
19	1827	9.219887357206	3
19	1837	9.220109357206	1
19	1868	9.352571023869	3
19	1878	9.352793023869	1
19	1904	9.384781046463	3
19	1909	9.385003046463	1
19	1947	9.447009828233	0
19	1953	9.447231828233	1
19	2004	9.71988735124	3
19	2014	9.72010935124	1
19	2051	9.852571012338	3
19	2061	9.852793012338	1
19	2087	9.88478104806	3
19	2092	9.88500304806	1
19	2127	9.947009828233	0
19	2133	9.947231828233	1
19	2191	10.219887340966	3
19	2201	10.220109340966	1
19	2232	10.3525710043	3
19	2242	10.3527930043	1
19	2268	10.384781060814	3
19	2273	10.385003060814	1
19	2311	10.447009828233	0
19	2317	10.447231828233	1
19	2368	10.719887327538	3
19	2378	10.720109327538	1
19	2413	10.852570998366	3
19	2423	10.852792998366	1
19	2449	10.88478107452	3
19	2454	10.88500307452	1
19	2490	10.947009828233	0
19	2496	10.947231828233	1
19	2555	11.219887314725	3
19	2565	11.220109314725	1
19	2596	11.35257099318	3
19	2606	11.35279299318	1
19	2632	11.384781081301	3
19	2637	11.385003081301	1
19	2675	11.447009828233	0
19	2681	11.447231828233	1
19	2732	11.71988730461	3
19	2742	11.72010930461	1
19	2778	11.852570987539	3
19	2788	11.852792987539	1
19	2814	11.884781079061	3
19	2819	11.885003079061	1
19	2853	11.947009828233	0
19	2859	11.947231828233	1
19	2919	12.219887297655	3
19	2929	12.220109297655	1
19	2960	12.352570980279	3
19	2970	12.352792980279	1
19	2996	12.384781070846	3
19	3001	12.385003070846	1
19	3039	12.447009828233	0
19	3045	12.447231828233	1
19	3096	12.719887292106	3
19	3106	12.720109292106	1
19	3142	12.852570971765	3
19	3152	12.852792971765	1
19	3178	12.884781062753	3
19	3183	12.885003062753	1
19	3217	12.947009828233	0
19	3223	12.947231828233	1
19	3282	13.219887286971	3
19	3292	13.220109286971	1
19	3323	13.352570963706	3
19	3328	13.352792963706	1
19	3360	13.384781058671	3
19	3365	13.385003058671	1
19	3403	13.447009828233	0
19	3409	13.447231828233	1
19	3459	13.719887281538	3
19	3469	13.720109281538	1
19	3505	13.852570956668	3
19	3515	13.852792956668	1
20	285	3.947009828233	1
20	286	3.947009828233	2
20	290	3.947231828233	1
20	291	3.947231828233	0
20	355	4.447009828233	1
20	356	4.447009828233	2
20	360	4.447231828233	1
20	361	4.447231828233	0
20	420	4.947009828233	1
20	421	4.947009828233	2
20	425	4.947231828233	1
20	426	4.947231828233	0
20	491	5.447009828233	1
20	492	5.447009828233	2
20	496	5.447231828233	1
20	497	5.447231828233	0
20	669	5.947009828233	1
20	670	5.947009828233	2
20	674	5.947231828233	1
20	675	5.947231828233	0
20	855	6.447009828233	1
20	856	6.447009828233	2
20	860	6.447231828233	1
20	861	6.447231828233	0
20	1034	6.947009828233	1
20	1035	6.947009828233	2
20	1039	6.947231828233	1
20	1040	6.947231828233	0
20	1220	7.447009828233	1
20	1221	7.447009828233	2
20	1225	7.447231828233	1
20	1226	7.447231828233	0
20	1398	7.947009828233	1
20	1399	7.947009828233	2
20	1403	7.947231828233	1
20	1404	7.947231828233	0
20	1583	8.447009828233	1
20	1584	8.447009828233	2
20	1588	8.447231828233	1
20	1589	8.447231828233	0
20	1762	8.947009828233	1
20	1763	8.947009828233	2
20	1767	8.947231828233	1
20	1768	8.947231828233	0
20	1947	9.447009828233	1
20	1948	9.447009828233	2
20	1952	9.447231828233	1
20	1953	9.447231828233	0
20	2127	9.947009828233	1
20	2128	9.947009828233	2
20	2132	9.947231828233	1
20	2133	9.947231828233	0
20	2311	10.447009828233	1
20	2312	10.447009828233	2
20	2316	10.447231828233	1
20	2317	10.447231828233	0
20	2490	10.947009828233	1
20	2491	10.947009828233	2
20	2495	10.947231828233	1
20	2496	10.947231828233	0
20	2675	11.447009828233	1
20	2676	11.447009828233	2
20	2680	11.447231828233	1
20	2681	11.447231828233	0
20	2853	11.947009828233	1
20	2854	11.947009828233	2
20	2858	11.947231828233	1
20	2859	11.947231828233	0
20	3039	12.447009828233	1
20	3040	12.447009828233	2
20	3044	12.447231828233	1
20	3045	12.447231828233	0
20	3217	12.947009828233	1
20	3218	12.947009828233	2
20	3222	12.947231828233	1
20	3223	12.947231828233	0
20	3403	13.447009828233	1
20	3404	13.447009828233	2
20	3408	13.447231828233	1
20	3409	13.447231828233	0
21	0	0	0
22	0	0	0
22	0	0	0
22	0	0	0
22	0	0	0
22	280	3.947009828233	0
22	280	3.947009828233	2
22	282	3.947009828233	2
22	282	3.947009828233	3
22	285	3.947009828233	3
22	285	3.947009828233	3
22	290	3.947231828233	3
22	290	3.947231828233	0
22	291	3.947231828233	0
22	291	3.947231828233	0
22	350	4.447009828233	0
22	350	4.447009828233	2
22	352	4.447009828233	2
22	352	4.447009828233	3
22	355	4.447009828233	3
22	355	4.447009828233	3
22	360	4.447231828233	3
22	360	4.447231828233	0
22	361	4.447231828233	0
22	361	4.447231828233	0
22	415	4.947009828233	0
22	415	4.947009828233	2
22	417	4.947009828233	2
22	417	4.947009828233	3
22	420	4.947009828233	3
22	420	4.947009828233	3
22	425	4.947231828233	3
22	425	4.947231828233	0
22	426	4.947231828233	0
22	426	4.947231828233	0
22	486	5.447009828233	0
22	486	5.447009828233	2
22	488	5.447009828233	2
22	488	5.447009828233	3
22	491	5.447009828233	3
22	491	5.447009828233	3
22	496	5.447231828233	3
22	496	5.447231828233	0
22	497	5.447231828233	0
22	497	5.447231828233	0
22	548	5.719887433315	0
22	548	5.719887433315	0
22	557	5.720109433315	0
22	557	5.720109433315	0
22	593	5.852571073576	0
22	593	5.852571073576	0
22	603	5.852793073576	0
22	603	5.852793073576	0
22	630	5.884781023769	0
22	630	5.884781023769	0
22	635	5.885003023769	0
22	635	5.885003023769	0
22	664	5.947009828233	0
22	664	5.947009828233	2
22	666	5.947009828233	2
22	666	5.947009828233	3
22	669	5.947009828233	3
22	669	5.947009828233	3
22	674	5.947231828233	3
22	674	5.947231828233	0
22	675	5.947231828233	0
22	675	5.947231828233	0
22	735	6.219887428731	0
22	735	6.219887428731	0
22	745	6.220109428731	0
22	745	6.220109428731	0
22	776	6.352571071428	0
22	776	6.352571071428	0
22	786	6.352793071428	0
22	786	6.352793071428	0
22	812	6.38478103678	0
22	812	6.38478103678	0
22	817	6.38500303678	0
22	817	6.38500303678	0
22	850	6.447009828233	0
22	850	6.447009828233	2
22	852	6.447009828233	2
22	852	6.447009828233	3
22	855	6.447009828233	3
22	855	6.447009828233	3
22	860	6.447231828233	3
22	860	6.447231828233	0
22	861	6.447231828233	0
22	861	6.447231828233	0
22	913	6.719887410466	0
22	913	6.719887410466	0
22	923	6.720109410466	0
22	923	6.720109410466	0
22	959	6.852571073011	0
22	959	6.852571073011	0
22	969	6.852793073011	0
22	969	6.852793073011	0
22	995	6.884781068485	0
22	995	6.884781068485	0
22	1000	6.885003068485	0
22	1000	6.885003068485	0
22	1029	6.947009828233	0
22	1029	6.947009828233	2
22	1031	6.947009828233	2
22	1031	6.947009828233	3
22	1034	6.947009828233	3
22	1034	6.947009828233	3
22	1039	6.947231828233	3
22	1039	6.947231828233	0
22	1040	6.947231828233	0
22	1040	6.947231828233	0
22	1099	7.219887389215	0
22	1099	7.219887389215	0
22	1109	7.220109389215	0
22	1109	7.220109389215	0
22	1140	7.352571075159	0
22	1140	7.352571075159	0
22	1150	7.352793075159	0
22	1150	7.352793075159	0
22	1176	7.384781093664	0
22	1176	7.384781093664	0
22	1181	7.385003093664	0
22	1181	7.385003093664	0
22	1215	7.447009828233	0
22	1215	7.447009828233	2
22	1217	7.447009828233	2
22	1217	7.447009828233	3
22	1220	7.447009828233	3
22	1220	7.447009828233	3
22	1225	7.447231828233	3
22	1225	7.447231828233	0
22	1226	7.447231828233	0
22	1226	7.447231828233	0
22	1277	7.719887373506	0
22	1277	7.719887373506	0
22	1287	7.720109373506	0
22	1287	7.720109373506	0
22	1322	7.85257107105	0
22	1322	7.85257107105	0
22	1332	7.85279307105	0
22	1332	7.85279307105	0
22	1359	7.884781098198	0
22	1359	7.884781098198	0
22	1364	7.885003098198	0
22	1364	7.885003098198	0
22	1393	7.947009828233	0
22	1393	7.947009828233	2
22	1395	7.947009828233	2
22	1395	7.947009828233	3
22	1398	7.947009828233	3
22	1398	7.947009828233	3
22	1403	7.947231828233	3
22	1403	7.947231828233	0
22	1404	7.947231828233	0
22	1404	7.947231828233	0
22	1463	8.219887364009	0
22	1463	8.219887364009	0
22	1473	8.220109364009	0
22	1473	8.220109364009	0
22	1504	8.35257105788	0
22	1504	8.35257105788	0
22	1514	8.35279305788	0
22	1514	8.35279305788	0
22	1540	8.384781081835	0
22	1540	8.384781081835	0
22	1545	8.385003081835	0
22	1545	8.385003081835	0
22	1578	8.447009828233	0
22	1578	8.447009828233	2
22	1580	8.447009828233	2
22	1580	8.447009828233	3
22	1583	8.447009828233	3
22	1583	8.447009828233	3
22	1588	8.447231828233	3
22	1588	8.447231828233	0
22	1589	8.447231828233	0
22	1589	8.447231828233	0
22	1640	8.719887359978	0
22	1640	8.719887359978	0
22	1650	8.720109359978	0
22	1650	8.720109359978	0
22	1687	8.852571039616	0
22	1687	8.852571039616	0
22	1697	8.852793039616	0
22	1697	8.852793039616	0
22	1723	8.884781059499	0
22	1723	8.884781059499	0
22	1728	8.885003059499	0
22	1728	8.885003059499	0
22	1757	8.947009828233	0
22	1757	8.947009828233	2
22	1759	8.947009828233	2
22	1759	8.947009828233	3
22	1762	8.947009828233	3
22	1762	8.947009828233	3
22	1767	8.947231828233	3
22	1767	8.947231828233	0
22	1768	8.947231828233	0
22	1768	8.947231828233	0
22	1827	9.219887357206	0
22	1827	9.219887357206	0
22	1837	9.220109357206	0
22	1837	9.220109357206	0
22	1868	9.352571023869	0
22	1868	9.352571023869	0
22	1878	9.352793023869	0
22	1878	9.352793023869	0
22	1904	9.384781046463	0
22	1904	9.384781046463	0
22	1909	9.385003046463	0
22	1909	9.385003046463	0
22	1942	9.447009828233	0
22	1942	9.447009828233	2
22	1944	9.447009828233	2
22	1944	9.447009828233	3
22	1947	9.447009828233	3
22	1947	9.447009828233	3
22	1952	9.447231828233	3
22	1952	9.447231828233	0
22	1953	9.447231828233	0
22	1953	9.447231828233	0
22	2004	9.71988735124	0
22	2004	9.71988735124	0
22	2014	9.72010935124	0
22	2014	9.72010935124	0
22	2051	9.852571012338	0
22	2051	9.852571012338	0
22	2061	9.852793012338	0
22	2061	9.852793012338	0
22	2087	9.88478104806	0
22	2087	9.88478104806	0
22	2092	9.88500304806	0
22	2092	9.88500304806	0
22	2122	9.947009828233	0
22	2122	9.947009828233	2
22	2124	9.947009828233	2
22	2124	9.947009828233	3
22	2127	9.947009828233	3
22	2127	9.947009828233	3
22	2132	9.947231828233	3
22	2132	9.947231828233	0
22	2133	9.947231828233	0
22	2133	9.947231828233	0
22	2191	10.219887340966	0
22	2191	10.219887340966	0
22	2201	10.220109340966	0
22	2201	10.220109340966	0
22	2232	10.3525710043	0
22	2232	10.3525710043	0
22	2242	10.3527930043	0
22	2242	10.3527930043	0
22	2268	10.384781060814	0
22	2268	10.384781060814	0
22	2273	10.385003060814	0
22	2273	10.385003060814	0
22	2306	10.447009828233	0
22	2306	10.447009828233	2
22	2308	10.447009828233	2
22	2308	10.447009828233	3
22	2311	10.447009828233	3
22	2311	10.447009828233	3
22	2316	10.447231828233	3
22	2316	10.447231828233	0
22	2317	10.447231828233	0
22	2317	10.447231828233	0
22	2368	10.719887327538	0
22	2368	10.719887327538	0
22	2378	10.720109327538	0
22	2378	10.720109327538	0
22	2413	10.852570998366	0
22	2413	10.852570998366	0
22	2423	10.852792998366	0
22	2423	10.852792998366	0
22	2449	10.88478107452	0
22	2449	10.88478107452	0
22	2454	10.88500307452	0
22	2454	10.88500307452	0
22	2485	10.947009828233	0
22	2485	10.947009828233	2
22	2487	10.947009828233	2
22	2487	10.947009828233	3
22	2490	10.947009828233	3
22	2490	10.947009828233	3
22	2495	10.947231828233	3
22	2495	10.947231828233	0
22	2496	10.947231828233	0
22	2496	10.947231828233	0
22	2555	11.219887314725	0
22	2555	11.219887314725	0
22	2565	11.220109314725	0
22	2565	11.220109314725	0
22	2596	11.35257099318	0
22	2596	11.35257099318	0
22	2606	11.35279299318	0
22	2606	11.35279299318	0
22	2632	11.384781081301	0
22	2632	11.384781081301	0
22	2637	11.385003081301	0
22	2637	11.385003081301	0
22	2670	11.447009828233	0
22	2670	11.447009828233	2
22	2672	11.447009828233	2
22	2672	11.447009828233	3
22	2675	11.447009828233	3
22	2675	11.447009828233	3
22	2680	11.447231828233	3
22	2680	11.447231828233	0
22	2681	11.447231828233	0
22	2681	11.447231828233	0
22	2732	11.71988730461	0
22	2732	11.71988730461	0
22	2742	11.72010930461	0
22	2742	11.72010930461	0
22	2778	11.852570987539	0
22	2778	11.852570987539	0
22	2788	11.852792987539	0
22	2788	11.852792987539	0
22	2814	11.884781079061	0
22	2814	11.884781079061	0
22	2819	11.885003079061	0
22	2819	11.885003079061	0
22	2848	11.947009828233	0
22	2848	11.947009828233	2
22	2850	11.947009828233	2
22	2850	11.947009828233	3
22	2853	11.947009828233	3
22	2853	11.947009828233	3
22	2858	11.947231828233	3
22	2858	11.947231828233	0
22	2859	11.947231828233	0
22	2859	11.947231828233	0
22	2919	12.219887297655	0
22	2919	12.219887297655	0
22	2929	12.220109297655	0
22	2929	12.220109297655	0
22	2960	12.352570980279	0
22	2960	12.352570980279	0
22	2970	12.352792980279	0
22	2970	12.352792980279	0
22	2996	12.384781070846	0
22	2996	12.384781070846	0
22	3001	12.385003070846	0
22	3001	12.385003070846	0
22	3034	12.447009828233	0
22	3034	12.447009828233	2
22	3036	12.447009828233	2
22	3036	12.447009828233	3
22	3039	12.447009828233	3
22	3039	12.447009828233	3
22	3044	12.447231828233	3
22	3044	12.447231828233	0
22	3045	12.447231828233	0
22	3045	12.447231828233	0
22	3096	12.719887292106	0
22	3096	12.719887292106	0
22	3106	12.720109292106	0
22	3106	12.720109292106	0
22	3142	12.852570971765	0
22	3142	12.852570971765	0
22	3152	12.852792971765	0
22	3152	12.852792971765	0
22	3178	12.884781062753	0
22	3178	12.884781062753	0
22	3183	12.885003062753	0
22	3183	12.885003062753	0
22	3212	12.947009828233	0
22	3212	12.947009828233	2
22	3214	12.947009828233	2
22	3214	12.947009828233	3
22	3217	12.947009828233	3
22	3217	12.947009828233	3
22	3222	12.947231828233	3
22	3222	12.947231828233	0
22	3223	12.947231828233	0
22	3223	12.947231828233	0
22	3282	13.219887286971	0
22	3282	13.219887286971	0
22	3292	13.220109286971	0
22	3292	13.220109286971	0
22	3323	13.352570963706	0
22	3323	13.352570963706	0
22	3328	13.352792963706	0
22	3328	13.352792963706	0
22	3360	13.384781058671	0
22	3360	13.384781058671	0
22	3365	13.385003058671	0
22	3365	13.385003058671	0
22	3398	13.447009828233	0
22	3398	13.447009828233	2
22	3400	13.447009828233	2
22	3400	13.447009828233	3
22	3403	13.447009828233	3
22	3403	13.447009828233	3
22	3408	13.447231828233	3
22	3408	13.447231828233	0
22	3409	13.447231828233	0
22	3409	13.447231828233	0
22	3459	13.719887281538	0
22	3459	13.719887281538	0
22	3469	13.720109281538	0
22	3469	13.720109281538	0
22	3505	13.852570956668	0
22	3505	13.852570956668	0
22	3515	13.852792956668	0
22	3515	13.852792956668	0
23	626	5.884780782412	512
23	681	5.947232069647	512
23	756	6.220109479768	512
23	797	6.35279313423	512
23	808	6.384780782412	512
23	867	6.447232085991	512
23	934	6.720109468304	512
23	980	6.852793143563	512
23	991	6.884780782412	512
23	1046	6.947232118155	512
23	1120	7.220109454282	512
23	1161	7.352793152198	512
23	1172	7.384780782412	512
23	1232	7.447232141337	512
23	1298	7.720109442221	512
23	1343	7.852793150602	512
23	1355	7.884780782412	512
23	1410	7.947232142939	512
23	1484	8.220109431623	512
23	1525	8.352793135923	512
23	1536	8.384780782412	512
23	1595	8.447232124836	512
23	1661	8.720109424208	512
23	1708	8.852793115084	512
23	1719	8.884780782412	512
23	1774	8.947232103053	512
23	1848	9.220109419105	512
23	1889	9.352793098623	512
23	1900	9.384780782412	512
23	1959	9.447232091636	512
23	2025	9.72010941417	512
23	2072	9.852793089691	512
23	2083	9.884780782412	512
23	2139	9.947232095022	512
23	2212	10.220109408111	512
23	2253	10.352793086894	512
23	2264	10.384780782412	512
23	2323	10.447232108484	512
23	2389	10.720109400119	512
23	2434	10.852793086555	512
23	2445	10.884780782412	512
23	2502	10.947232121635	512
23	2576	11.220109391773	512
23	2617	11.352793084914	512
23	2628	11.384780782412	512
23	2687	11.447232127331	512
23	2753	11.720109383593	512
23	2799	11.852793080242	512
23	2810	11.884780782412	512
23	2865	11.947232124067	512
23	2940	12.220109376356	512
23	2981	12.352793072371	512
23	2992	12.384780782412	512
23	3051	12.44723211555	512
23	3117	12.720109370075	512
23	3163	12.852793063555	512
23	3174	12.884780782412	512
23	3229	12.947232107827	512
23	3303	13.220109365186	512
23	3345	13.352793056605	512
23	3356	13.384780782412	512
23	3415	13.447232104315	512
23	3480	13.720109361834	512
23	3526	13.852793052177	512
24	615	5.884780782412	512
24	799	6.384780782412	512
24	982	6.884780782412	512
24	1163	7.384780782412	512
24	1346	7.884780782412	512
24	1527	8.384780782412	512
24	1710	8.884780782412	512
24	1891	9.384780782412	512
24	2074	9.884780782412	512
24	2255	10.384780782412	512
24	2436	10.884780782412	512
24	2619	11.384780782412	512
24	2801	11.884780782412	512
24	2983	12.384780782412	512
24	3165	12.884780782412	512
24	3347	13.384780782412	512
25	626	5.884780782412	0
25	681	5.947232069647	0.000222241414
25	756	6.220109479768	0.000222770459
25	797	6.35279313423	0.000222459196
25	808	6.384780782412	0
25	867	6.447232085991	0.000222257758
25	934	6.720109468304	0.000222758995
25	980	6.852793143563	0.000222468529
25	991	6.884780782412	0
25	1046	6.947232118155	0.000222289922
25	1120	7.220109454282	0.000222744973
25	1161	7.352793152198	0.000222477164
25	1172	7.384780782412	0
25	1232	7.447232141337	0.000222313104
25	1298	7.720109442221	0.000222732912
25	1343	7.852793150602	0.000222475568
25	1355	7.884780782412	0
25	1410	7.947232142939	0.000222314706
25	1484	8.220109431623	0.000222722314
25	1525	8.352793135923	0.000222460889
25	1536	8.384780782412	0
25	1595	8.447232124836	0.000222296603
25	1661	8.720109424208	0.000222714899
25	1708	8.852793115084	0.00022244005
25	1719	8.884780782412	0
25	1774	8.947232103053	0.00022227482
25	1848	9.220109419105	0.000222709796
25	1889	9.352793098623	0.000222423589
25	1900	9.384780782412	0
25	1959	9.447232091636	0.000222263403
25	2025	9.72010941417	0.000222704861
25	2072	9.852793089691	0.000222414657
25	2083	9.884780782412	0
25	2139	9.947232095022	0.000222266789
25	2212	10.220109408111	0.000222698802
25	2253	10.352793086894	0.00022241186
25	2264	10.384780782412	0
25	2323	10.447232108484	0.000222280251
25	2389	10.720109400119	0.00022269081
25	2434	10.852793086555	0.000222411521
25	2445	10.884780782412	0
25	2502	10.947232121635	0.000222293402
25	2576	11.220109391773	0.000222682464
25	2617	11.352793084914	0.00022240988
25	2628	11.384780782412	0
25	2687	11.447232127331	0.000222299098
25	2753	11.720109383593	0.000222674284
25	2799	11.852793080242	0.000222405208
25	2810	11.884780782412	0
25	2865	11.947232124067	0.000222295834
25	2940	12.220109376356	0.000222667047
25	2981	12.352793072371	0.000222397337
25	2992	12.384780782412	0
25	3051	12.44723211555	0.000222287317
25	3117	12.720109370075	0.000222660766
25	3163	12.852793063555	0.000222388521
25	3174	12.884780782412	0
25	3229	12.947232107827	0.000222279594
25	3303	13.220109365186	0.000222655877
25	3345	13.352793056605	0.000222381571
25	3356	13.384780782412	0
25	3415	13.447232104315	0.000222276082
25	3480	13.720109361834	0.000222652525
25	3526	13.852793052177	0.000222377143
27	618	5.884780782412	520
27	800	6.384780782412	520
27	983	6.884780782412	520
27	1164	7.384780782412	520
27	1347	7.884780782412	520
27	1528	8.384780782412	520
27	1711	8.884780782412	520
27	1892	9.384780782412	520
27	2075	9.884780782412	520
27	2256	10.384780782412	520
27	2437	10.884780782412	520
27	2620	11.384780782412	520
27	2802	11.884780782412	520
27	2984	12.384780782412	520
27	3166	12.884780782412	520
27	3348	13.384780782412	520
28	296	3.947232069591	520
28	366	4.447232069591	520
28	431	4.947232069591	520
28	502	5.447232069591	520
28	567	5.720109482774	520
28	613	5.852793133282	520
28	624	5.884780782412	520
28	680	5.947232069647	520
28	755	6.220109479768	520
28	796	6.35279313423	520
28	806	6.384780782412	520
28	866	6.447232085991	520
28	933	6.720109468304	520
28	979	6.852793143563	520
28	989	6.884780782412	520
28	1045	6.947232118155	520
28	1119	7.220109454282	520
28	1160	7.352793152198	520
28	1170	7.384780782412	520
28	1231	7.447232141337	520
28	1297	7.720109442221	520
28	1342	7.852793150602	520
28	1353	7.884780782412	520
28	1409	7.947232142939	520
28	1483	8.220109431623	520
28	1524	8.352793135923	520
28	1534	8.384780782412	520
28	1594	8.447232124836	520
28	1660	8.720109424208	520
28	1707	8.852793115084	520
28	1717	8.884780782412	520
28	1773	8.947232103053	520
28	1847	9.220109419105	520
28	1888	9.352793098623	520
28	1898	9.384780782412	520
28	1958	9.447232091636	520
28	2024	9.72010941417	520
28	2071	9.852793089691	520
28	2081	9.884780782412	520
28	2138	9.947232095022	520
28	2211	10.220109408111	520
28	2252	10.352793086894	520
28	2262	10.384780782412	520
28	2322	10.447232108484	520
28	2388	10.720109400119	520
28	2433	10.852793086555	520
28	2443	10.884780782412	520
28	2501	10.947232121635	520
28	2575	11.220109391773	520
28	2616	11.352793084914	520
28	2626	11.384780782412	520
28	2686	11.447232127331	520
28	2752	11.720109383593	520
28	2798	11.852793080242	520
28	2808	11.884780782412	520
28	2864	11.947232124067	520
28	2939	12.220109376356	520
28	2980	12.352793072371	520
28	2990	12.384780782412	520
28	3050	12.44723211555	520
28	3116	12.720109370075	520
28	3162	12.852793063555	520
28	3172	12.884780782412	520
28	3228	12.947232107827	520
28	3302	13.220109365186	520
28	3344	13.352793056605	520
28	3354	13.384780782412	520
28	3414	13.447232104315	520
28	3479	13.720109361834	520
28	3525	13.852793052177	520
29	624	5.884780782412	1
29	680	5.947232069647	2
29	755	6.220109479768	3
29	796	6.35279313423	4
29	806	6.384780782412	5
29	866	6.447232085991	6
29	933	6.720109468304	7
29	979	6.852793143563	8
29	989	6.884780782412	9
29	1045	6.947232118155	10
29	1119	7.220109454282	11
29	1160	7.352793152198	12
29	1170	7.384780782412	13
29	1231	7.447232141337	14
29	1297	7.720109442221	15
29	1342	7.852793150602	16
29	1353	7.884780782412	17
29	1409	7.947232142939	18
29	1483	8.220109431623	19
29	1524	8.352793135923	20
29	1534	8.384780782412	21
29	1594	8.447232124836	22
29	1660	8.720109424208	23
29	1707	8.852793115084	24
29	1717	8.884780782412	25
29	1773	8.947232103053	26
29	1847	9.220109419105	27
29	1888	9.352793098623	28
29	1898	9.384780782412	29
29	1958	9.447232091636	30
29	2024	9.72010941417	31
29	2071	9.852793089691	32
29	2081	9.884780782412	33
29	2138	9.947232095022	34
29	2211	10.220109408111	35
29	2252	10.352793086894	36
29	2262	10.384780782412	37
29	2322	10.447232108484	38
29	2388	10.720109400119	39
29	2433	10.852793086555	40
29	2443	10.884780782412	41
29	2501	10.947232121635	42
29	2575	11.220109391773	43
29	2616	11.352793084914	44
29	2626	11.384780782412	45
29	2686	11.447232127331	46
29	2752	11.720109383593	47
29	2798	11.852793080242	48
29	2808	11.884780782412	49
29	2864	11.947232124067	50
29	2939	12.220109376356	51
29	2980	12.352793072371	52
29	2990	12.384780782412	53
29	3050	12.44723211555	54
29	3116	12.720109370075	55
29	3162	12.852793063555	56
29	3172	12.884780782412	57
29	3228	12.947232107827	58
29	3302	13.220109365186	59
29	3344	13.352793056605	60
29	3354	13.384780782412	61
29	3414	13.447232104315	62
29	3479	13.720109361834	63
29	3525	13.852793052177	64
30	296	3.947232069591	1
30	366	4.447232069591	2
30	431	4.947232069591	3
30	502	5.447232069591	4
30	567	5.720109482774	5
30	613	5.852793133282	6
35	620	5.884780782412	540
35	802	6.384780782412	540
35	985	6.884780782412	540
35	1166	7.384780782412	540
35	1349	7.884780782412	540
35	1530	8.384780782412	540
35	1713	8.884780782412	540
35	1894	9.384780782412	540
35	2077	9.884780782412	540
35	2258	10.384780782412	540
35	2439	10.884780782412	540
35	2622	11.384780782412	540
35	2804	11.884780782412	540
35	2986	12.384780782412	540
35	3168	12.884780782412	540
35	3350	13.384780782412	540
36	620	5.884780782412	540
36	802	6.384780782412	540
36	985	6.884780782412	540
36	1166	7.384780782412	540
36	1349	7.884780782412	540
36	1530	8.384780782412	540
36	1713	8.884780782412	540
36	1894	9.384780782412	540
36	2077	9.884780782412	540
36	2258	10.384780782412	540
36	2439	10.884780782412	540
36	2622	11.384780782412	540
36	2804	11.884780782412	540
36	2986	12.384780782412	540
36	3168	12.884780782412	540
36	3350	13.384780782412	540
37	293	3.947232069591	576
37	363	4.447232069591	576
37	428	4.947232069591	576
37	499	5.447232069591	576
37	564	5.720109482774	576
37	610	5.852793133282	576
37	677	5.947232069647	576
37	752	6.220109479768	576
37	793	6.35279313423	576
37	863	6.447232085991	576
37	930	6.720109468304	576
37	976	6.852793143563	576
37	1042	6.947232118155	576
37	1116	7.220109454282	576
37	1157	7.352793152198	576
37	1228	7.447232141337	576
37	1294	7.720109442221	576
37	1339	7.852793150602	576
37	1406	7.947232142939	576
37	1480	8.220109431623	576
37	1521	8.352793135923	576
37	1591	8.447232124836	576
37	1657	8.720109424208	576
37	1704	8.852793115084	576
37	1770	8.947232103053	576
37	1844	9.220109419105	576
37	1885	9.352793098623	576
37	1955	9.447232091636	576
37	2021	9.72010941417	576
37	2068	9.852793089691	576
37	2135	9.947232095022	576
37	2208	10.220109408111	576
37	2249	10.352793086894	576
37	2319	10.447232108484	576
37	2385	10.720109400119	576
37	2430	10.852793086555	576
37	2498	10.947232121635	576
37	2572	11.220109391773	576
37	2613	11.352793084914	576
37	2683	11.447232127331	576
37	2749	11.720109383593	576
37	2795	11.852793080242	576
37	2861	11.947232124067	576
37	2936	12.220109376356	576
37	2977	12.352793072371	576
37	3047	12.44723211555	576
37	3113	12.720109370075	576
37	3159	12.852793063555	576
37	3225	12.947232107827	576
37	3299	13.220109365186	576
37	3341	13.352793056605	576
37	3411	13.447232104315	576
37	3476	13.720109361834	576
37	3522	13.852793052177	576
38	627	5.884780782412	576
38	809	6.384780782412	576
38	992	6.884780782412	576
38	1173	7.384780782412	576
38	1356	7.884780782412	576
38	1537	8.384780782412	576
38	1720	8.884780782412	576
38	1901	9.384780782412	576
38	2084	9.884780782412	576
38	2265	10.384780782412	576
38	2446	10.884780782412	576
38	2629	11.384780782412	576
38	2811	11.884780782412	576
38	2993	12.384780782412	576
38	3175	12.884780782412	576
38	3357	13.384780782412	576
39	623	5.884780782412	576
39	805	6.384780782412	576
39	988	6.884780782412	576
39	1169	7.384780782412	576
39	1352	7.884780782412	576
39	1533	8.384780782412	576
39	1716	8.884780782412	576
39	1897	9.384780782412	576
39	2080	9.884780782412	576
39	2261	10.384780782412	576
39	2442	10.884780782412	576
39	2625	11.384780782412	576
39	2807	11.884780782412	576
39	2989	12.384780782412	576
39	3171	12.884780782412	576
39	3353	13.384780782412	576
40	293	3.947232069591	576
40	363	4.447232069591	576
40	428	4.947232069591	576
40	499	5.447232069591	576
40	564	5.720109482774	576
40	610	5.852793133282	576
40	677	5.947232069647	576
40	752	6.220109479768	576
40	793	6.35279313423	576
40	863	6.447232085991	576
40	930	6.720109468304	576
40	976	6.852793143563	576
40	1042	6.947232118155	576
40	1116	7.220109454282	576
40	1157	7.352793152198	576
40	1228	7.447232141337	576
40	1294	7.720109442221	576
40	1339	7.852793150602	576
40	1406	7.947232142939	576
40	1480	8.220109431623	576
40	1521	8.352793135923	576
40	1591	8.447232124836	576
40	1657	8.720109424208	576
40	1704	8.852793115084	576
40	1770	8.947232103053	576
40	1844	9.220109419105	576
40	1885	9.352793098623	576
40	1955	9.447232091636	576
40	2021	9.72010941417	576
40	2068	9.852793089691	576
40	2135	9.947232095022	576
40	2208	10.220109408111	576
40	2249	10.352793086894	576
40	2319	10.447232108484	576
40	2385	10.720109400119	576
40	2430	10.852793086555	576
40	2498	10.947232121635	576
40	2572	11.220109391773	576
40	2613	11.352793084914	576
40	2683	11.447232127331	576
40	2749	11.720109383593	576
40	2795	11.852793080242	576
40	2861	11.947232124067	576
40	2936	12.220109376356	576
40	2977	12.352793072371	576
40	3047	12.44723211555	576
40	3113	12.720109370075	576
40	3159	12.852793063555	576
40	3225	12.947232107827	576
40	3299	13.220109365186	576
40	3341	13.352793056605	576
40	3411	13.447232104315	576
40	3476	13.720109361834	576
40	3522	13.852793052177	576
41	0	0	0
41	0	0	2
41	628	5.884780782412	3
41	634	5.885002782412	2
41	810	6.384780782412	3
41	816	6.385002782412	2
41	993	6.884780782412	3
41	999	6.885002782412	2
41	1174	7.384780782412	3
41	1180	7.385002782412	2
41	1357	7.884780782412	3
41	1363	7.885002782412	2
41	1538	8.384780782412	3
41	1544	8.385002782412	2
41	1721	8.884780782412	3
41	1727	8.885002782412	2
41	1902	9.384780782412	3
41	1908	9.385002782412	2
41	2085	9.884780782412	3
41	2091	9.885002782412	2
41	2266	10.384780782412	3
41	2272	10.385002782412	2
41	2447	10.884780782412	3
41	2453	10.885002782412	2
41	2630	11.384780782412	3
41	2636	11.385002782412	2
41	2812	11.884780782412	3
41	2818	11.885002782412	2
41	2994	12.384780782412	3
41	3000	12.385002782412	2
41	3176	12.884780782412	3
41	3182	12.885002782412	2
41	3358	13.384780782412	3
41	3364	13.385002782412	2
42	0	0	1
42	287	3.947010069591	3
42	292	3.947232069591	1
42	357	4.447010069591	3
42	362	4.447232069591	1
42	422	4.947010069591	3
42	427	4.947232069591	1
42	493	5.447010069591	3
42	498	5.447232069591	1
42	549	5.719887482774	3
42	563	5.720109482774	1
42	594	5.852571133282	3
42	609	5.852793133282	1
42	628	5.884780782412	0
42	634	5.885002782412	1
42	671	5.947010069647	3
42	676	5.947232069647	1
42	736	6.219887479768	3
42	751	6.220109479768	1
42	777	6.35257113423	3
42	792	6.35279313423	1
42	810	6.384780782412	0
42	816	6.385002782412	1
42	857	6.447010085991	3
42	862	6.447232085991	1
42	914	6.719887468304	3
42	929	6.720109468304	1
42	960	6.852571143563	3
42	975	6.852793143563	1
42	993	6.884780782412	0
42	999	6.885002782412	1
42	1036	6.947010118155	3
42	1041	6.947232118155	1
42	1100	7.219887454282	3
42	1115	7.220109454282	1
42	1141	7.352571152198	3
42	1156	7.352793152198	1
42	1174	7.384780782412	0
42	1180	7.385002782412	1
42	1222	7.447010141337	3
42	1227	7.447232141337	1
42	1278	7.719887442221	3
42	1293	7.720109442221	1
42	1323	7.852571150602	3
42	1338	7.852793150602	1
42	1357	7.884780782412	0
42	1363	7.885002782412	1
42	1400	7.947010142939	3
42	1405	7.947232142939	1
42	1464	8.219887431623	3
42	1479	8.220109431623	1
42	1505	8.352571135923	3
42	1520	8.352793135923	1
42	1538	8.384780782412	0
42	1544	8.385002782412	1
42	1585	8.447010124836	3
42	1590	8.447232124836	1
42	1641	8.719887424208	3
42	1656	8.720109424208	1
42	1688	8.852571115084	3
42	1703	8.852793115084	1
42	1721	8.884780782412	0
42	1727	8.885002782412	1
42	1764	8.947010103053	3
42	1769	8.947232103053	1
42	1828	9.219887419105	3
42	1843	9.220109419105	1
42	1869	9.352571098623	3
42	1884	9.352793098623	1
42	1902	9.384780782412	0
42	1908	9.385002782412	1
42	1949	9.447010091636	3
42	1954	9.447232091636	1
42	2005	9.71988741417	3
42	2020	9.72010941417	1
42	2052	9.852571089691	3
42	2067	9.852793089691	1
42	2085	9.884780782412	0
42	2091	9.885002782412	1
42	2129	9.947010095022	3
42	2134	9.947232095022	1
42	2192	10.219887408111	3
42	2207	10.220109408111	1
42	2233	10.352571086894	3
42	2248	10.352793086894	1
42	2266	10.384780782412	0
42	2272	10.385002782412	1
42	2313	10.447010108484	3
42	2318	10.447232108484	1
42	2369	10.719887400119	3
42	2384	10.720109400119	1
42	2414	10.852571086555	3
42	2429	10.852793086555	1
42	2447	10.884780782412	0
42	2453	10.885002782412	1
42	2492	10.947010121635	3
42	2497	10.947232121635	1
42	2556	11.219887391773	3
42	2571	11.220109391773	1
42	2597	11.352571084914	3
42	2612	11.352793084914	1
42	2630	11.384780782412	0
42	2636	11.385002782412	1
42	2677	11.447010127331	3
42	2682	11.447232127331	1
42	2733	11.719887383593	3
42	2748	11.720109383593	1
42	2779	11.852571080242	3
42	2794	11.852793080242	1
42	2812	11.884780782412	0
42	2818	11.885002782412	1
42	2855	11.947010124067	3
42	2860	11.947232124067	1
42	2920	12.219887376356	3
42	2935	12.220109376356	1
42	2961	12.352571072371	3
42	2976	12.352793072371	1
42	2994	12.384780782412	0
42	3000	12.385002782412	1
42	3041	12.44701011555	3
42	3046	12.44723211555	1
42	3097	12.719887370075	3
42	3112	12.720109370075	1
42	3143	12.852571063555	3
42	3158	12.852793063555	1
42	3176	12.884780782412	0
42	3182	12.885002782412	1
42	3219	12.947010107827	3
42	3224	12.947232107827	1
42	3283	13.219887365186	3
42	3298	13.220109365186	1
42	3325	13.352571056605	3
42	3340	13.352793056605	1
42	3358	13.384780782412	0
42	3364	13.385002782412	1
42	3405	13.447010104315	3
42	3410	13.447232104315	1
42	3460	13.719887361834	3
42	3475	13.720109361834	1
42	3506	13.852571052177	3
42	3521	13.852793052177	1
43	628	5.884780782412	1
43	629	5.884780782412	2
43	633	5.885002782412	1
43	634	5.885002782412	0
43	810	6.384780782412	1
43	811	6.384780782412	2
43	815	6.385002782412	1
43	816	6.385002782412	0
43	993	6.884780782412	1
43	994	6.884780782412	2
43	998	6.885002782412	1
43	999	6.885002782412	0
43	1174	7.384780782412	1
43	1175	7.384780782412	2
43	1179	7.385002782412	1
43	1180	7.385002782412	0
43	1357	7.884780782412	1
43	1358	7.884780782412	2
43	1362	7.885002782412	1
43	1363	7.885002782412	0
43	1538	8.384780782412	1
43	1539	8.384780782412	2
43	1543	8.385002782412	1
43	1544	8.385002782412	0
43	1721	8.884780782412	1
43	1722	8.884780782412	2
43	1726	8.885002782412	1
43	1727	8.885002782412	0
43	1902	9.384780782412	1
43	1903	9.384780782412	2
43	1907	9.385002782412	1
43	1908	9.385002782412	0
43	2085	9.884780782412	1
43	2086	9.884780782412	2
43	2090	9.885002782412	1
43	2091	9.885002782412	0
43	2266	10.384780782412	1
43	2267	10.384780782412	2
43	2271	10.385002782412	1
43	2272	10.385002782412	0
43	2447	10.884780782412	1
43	2448	10.884780782412	2
43	2452	10.885002782412	1
43	2453	10.885002782412	0
43	2630	11.384780782412	1
43	2631	11.384780782412	2
43	2635	11.385002782412	1
43	2636	11.385002782412	0
43	2812	11.884780782412	1
43	2813	11.884780782412	2
43	2817	11.885002782412	1
43	2818	11.885002782412	0
43	2994	12.384780782412	1
43	2995	12.384780782412	2
43	2999	12.385002782412	1
43	3000	12.385002782412	0
43	3176	12.884780782412	1
43	3177	12.884780782412	2
43	3181	12.885002782412	1
43	3182	12.885002782412	0
43	3358	13.384780782412	1
43	3359	13.384780782412	2
43	3363	13.385002782412	1
43	3364	13.385002782412	0
44	0	0	0
45	0	0	0
45	0	0	0
45	0	0	0
45	0	0	0
45	287	3.947010069591	0
45	287	3.947010069591	0
45	292	3.947232069591	0
45	292	3.947232069591	0
45	357	4.447010069591	0
45	357	4.447010069591	0
45	362	4.447232069591	0
45	362	4.447232069591	0
45	422	4.947010069591	0
45	422	4.947010069591	0
45	427	4.947232069591	0
45	427	4.947232069591	0
45	493	5.447010069591	0
45	493	5.447010069591	0
45	498	5.447232069591	0
45	498	5.447232069591	0
45	549	5.719887482774	0
45	549	5.719887482774	0
45	563	5.720109482774	0
45	563	5.720109482774	0
45	594	5.852571133282	0
45	594	5.852571133282	0
45	609	5.852793133282	0
45	609	5.852793133282	0
45	623	5.884780782412	0
45	623	5.884780782412	2
45	625	5.884780782412	2
45	625	5.884780782412	3
45	628	5.884780782412	3
45	628	5.884780782412	3
45	633	5.885002782412	3
45	633	5.885002782412	0
45	634	5.885002782412	0
45	634	5.885002782412	0
45	671	5.947010069647	0
45	671	5.947010069647	0
45	676	5.947232069647	0
45	676	5.947232069647	0
45	736	6.219887479768	0
45	736	6.219887479768	0
45	751	6.220109479768	0
45	751	6.220109479768	0
45	777	6.35257113423	0
45	777	6.35257113423	0
45	792	6.35279313423	0
45	792	6.35279313423	0
45	805	6.384780782412	0
45	805	6.384780782412	2
45	807	6.384780782412	2
45	807	6.384780782412	3
45	810	6.384780782412	3
45	810	6.384780782412	3
45	815	6.385002782412	3
45	815	6.385002782412	0
45	816	6.385002782412	0
45	816	6.385002782412	0
45	857	6.447010085991	0
45	857	6.447010085991	0
45	862	6.447232085991	0
45	862	6.447232085991	0
45	914	6.719887468304	0
45	914	6.719887468304	0
45	929	6.720109468304	0
45	929	6.720109468304	0
45	960	6.852571143563	0
45	960	6.852571143563	0
45	975	6.852793143563	0
45	975	6.852793143563	0
45	988	6.884780782412	0
45	988	6.884780782412	2
45	990	6.884780782412	2
45	990	6.884780782412	3
45	993	6.884780782412	3
45	993	6.884780782412	3
45	998	6.885002782412	3
45	998	6.885002782412	0
45	999	6.885002782412	0
45	999	6.885002782412	0
45	1036	6.947010118155	0
45	1036	6.947010118155	0
45	1041	6.947232118155	0
45	1041	6.947232118155	0
45	1100	7.219887454282	0
45	1100	7.219887454282	0
45	1115	7.220109454282	0
45	1115	7.220109454282	0
45	1141	7.352571152198	0
45	1141	7.352571152198	0
45	1156	7.352793152198	0
45	1156	7.352793152198	0
45	1169	7.384780782412	0
45	1169	7.384780782412	2
45	1171	7.384780782412	2
45	1171	7.384780782412	3
45	1174	7.384780782412	3
45	1174	7.384780782412	3
45	1179	7.385002782412	3
45	1179	7.385002782412	0
45	1180	7.385002782412	0
45	1180	7.385002782412	0
45	1222	7.447010141337	0
45	1222	7.447010141337	0
45	1227	7.447232141337	0
45	1227	7.447232141337	0
45	1278	7.719887442221	0
45	1278	7.719887442221	0
45	1293	7.720109442221	0
45	1293	7.720109442221	0
45	1323	7.852571150602	0
45	1323	7.852571150602	0
45	1338	7.852793150602	0
45	1338	7.852793150602	0
45	1352	7.884780782412	0
45	1352	7.884780782412	2
45	1354	7.884780782412	2
45	1354	7.884780782412	3
45	1357	7.884780782412	3
45	1357	7.884780782412	3
45	1362	7.885002782412	3
45	1362	7.885002782412	0
45	1363	7.885002782412	0
45	1363	7.885002782412	0
45	1400	7.947010142939	0
45	1400	7.947010142939	0
45	1405	7.947232142939	0
45	1405	7.947232142939	0
45	1464	8.219887431623	0
45	1464	8.219887431623	0
45	1479	8.220109431623	0
45	1479	8.220109431623	0
45	1505	8.352571135923	0
45	1505	8.352571135923	0
45	1520	8.352793135923	0
45	1520	8.352793135923	0
45	1533	8.384780782412	0
45	1533	8.384780782412	2
45	1535	8.384780782412	2
45	1535	8.384780782412	3
45	1538	8.384780782412	3
45	1538	8.384780782412	3
45	1543	8.385002782412	3
45	1543	8.385002782412	0
45	1544	8.385002782412	0
45	1544	8.385002782412	0
45	1585	8.447010124836	0
45	1585	8.447010124836	0
45	1590	8.447232124836	0
45	1590	8.447232124836	0
45	1641	8.719887424208	0
45	1641	8.719887424208	0
45	1656	8.720109424208	0
45	1656	8.720109424208	0
45	1688	8.852571115084	0
45	1688	8.852571115084	0
45	1703	8.852793115084	0
45	1703	8.852793115084	0
45	1716	8.884780782412	0
45	1716	8.884780782412	2
45	1718	8.884780782412	2
45	1718	8.884780782412	3
45	1721	8.884780782412	3
45	1721	8.884780782412	3
45	1726	8.885002782412	3
45	1726	8.885002782412	0
45	1727	8.885002782412	0
45	1727	8.885002782412	0
45	1764	8.947010103053	0
45	1764	8.947010103053	0
45	1769	8.947232103053	0
45	1769	8.947232103053	0
45	1828	9.219887419105	0
45	1828	9.219887419105	0
45	1843	9.220109419105	0
45	1843	9.220109419105	0
45	1869	9.352571098623	0
45	1869	9.352571098623	0
45	1884	9.352793098623	0
45	1884	9.352793098623	0
45	1897	9.384780782412	0
45	1897	9.384780782412	2
45	1899	9.384780782412	2
45	1899	9.384780782412	3
45	1902	9.384780782412	3
45	1902	9.384780782412	3
45	1907	9.385002782412	3
45	1907	9.385002782412	0
45	1908	9.385002782412	0
45	1908	9.385002782412	0
45	1949	9.447010091636	0
45	1949	9.447010091636	0
45	1954	9.447232091636	0
45	1954	9.447232091636	0
45	2005	9.71988741417	0
45	2005	9.71988741417	0
45	2020	9.72010941417	0
45	2020	9.72010941417	0
45	2052	9.852571089691	0
45	2052	9.852571089691	0
45	2067	9.852793089691	0
45	2067	9.852793089691	0
45	2080	9.884780782412	0
45	2080	9.884780782412	2
45	2082	9.884780782412	2
45	2082	9.884780782412	3
45	2085	9.884780782412	3
45	2085	9.884780782412	3
45	2090	9.885002782412	3
45	2090	9.885002782412	0
45	2091	9.885002782412	0
45	2091	9.885002782412	0
45	2129	9.947010095022	0
45	2129	9.947010095022	0
45	2134	9.947232095022	0
45	2134	9.947232095022	0
45	2192	10.219887408111	0
45	2192	10.219887408111	0
45	2207	10.220109408111	0
45	2207	10.220109408111	0
45	2233	10.352571086894	0
45	2233	10.352571086894	0
45	2248	10.352793086894	0
45	2248	10.352793086894	0
45	2261	10.384780782412	0
45	2261	10.384780782412	2
45	2263	10.384780782412	2
45	2263	10.384780782412	3
45	2266	10.384780782412	3
45	2266	10.384780782412	3
45	2271	10.385002782412	3
45	2271	10.385002782412	0
45	2272	10.385002782412	0
45	2272	10.385002782412	0
45	2313	10.447010108484	0
45	2313	10.447010108484	0
45	2318	10.447232108484	0
45	2318	10.447232108484	0
45	2369	10.719887400119	0
45	2369	10.719887400119	0
45	2384	10.720109400119	0
45	2384	10.720109400119	0
45	2414	10.852571086555	0
45	2414	10.852571086555	0
45	2429	10.852793086555	0
45	2429	10.852793086555	0
45	2442	10.884780782412	0
45	2442	10.884780782412	2
45	2444	10.884780782412	2
45	2444	10.884780782412	3
45	2447	10.884780782412	3
45	2447	10.884780782412	3
45	2452	10.885002782412	3
45	2452	10.885002782412	0
45	2453	10.885002782412	0
45	2453	10.885002782412	0
45	2492	10.947010121635	0
45	2492	10.947010121635	0
45	2497	10.947232121635	0
45	2497	10.947232121635	0
45	2556	11.219887391773	0
45	2556	11.219887391773	0
45	2571	11.220109391773	0
45	2571	11.220109391773	0
45	2597	11.352571084914	0
45	2597	11.352571084914	0
45	2612	11.352793084914	0
45	2612	11.352793084914	0
45	2625	11.384780782412	0
45	2625	11.384780782412	2
45	2627	11.384780782412	2
45	2627	11.384780782412	3
45	2630	11.384780782412	3
45	2630	11.384780782412	3
45	2635	11.385002782412	3
45	2635	11.385002782412	0
45	2636	11.385002782412	0
45	2636	11.385002782412	0
45	2677	11.447010127331	0
45	2677	11.447010127331	0
45	2682	11.447232127331	0
45	2682	11.447232127331	0
45	2733	11.719887383593	0
45	2733	11.719887383593	0
45	2748	11.720109383593	0
45	2748	11.720109383593	0
45	2779	11.852571080242	0
45	2779	11.852571080242	0
45	2794	11.852793080242	0
45	2794	11.852793080242	0
45	2807	11.884780782412	0
45	2807	11.884780782412	2
45	2809	11.884780782412	2
45	2809	11.884780782412	3
45	2812	11.884780782412	3
45	2812	11.884780782412	3
45	2817	11.885002782412	3
45	2817	11.885002782412	0
45	2818	11.885002782412	0
45	2818	11.885002782412	0
45	2855	11.947010124067	0
45	2855	11.947010124067	0
45	2860	11.947232124067	0
45	2860	11.947232124067	0
45	2920	12.219887376356	0
45	2920	12.219887376356	0
45	2935	12.220109376356	0
45	2935	12.220109376356	0
45	2961	12.352571072371	0
45	2961	12.352571072371	0
45	2976	12.352793072371	0
45	2976	12.352793072371	0
45	2989	12.384780782412	0
45	2989	12.384780782412	2
45	2991	12.384780782412	2
45	2991	12.384780782412	3
45	2994	12.384780782412	3
45	2994	12.384780782412	3
45	2999	12.385002782412	3
45	2999	12.385002782412	0
45	3000	12.385002782412	0
45	3000	12.385002782412	0
45	3041	12.44701011555	0
45	3041	12.44701011555	0
45	3046	12.44723211555	0
45	3046	12.44723211555	0
45	3097	12.719887370075	0
45	3097	12.719887370075	0
45	3112	12.720109370075	0
45	3112	12.720109370075	0
45	3143	12.852571063555	0
45	3143	12.852571063555	0
45	3158	12.852793063555	0
45	3158	12.852793063555	0
45	3171	12.884780782412	0
45	3171	12.884780782412	2
45	3173	12.884780782412	2
45	3173	12.884780782412	3
45	3176	12.884780782412	3
45	3176	12.884780782412	3
45	3181	12.885002782412	3
45	3181	12.885002782412	0
45	3182	12.885002782412	0
45	3182	12.885002782412	0
45	3219	12.947010107827	0
45	3219	12.947010107827	0
45	3224	12.947232107827	0
45	3224	12.947232107827	0
45	3283	13.219887365186	0
45	3283	13.219887365186	0
45	3298	13.220109365186	0
45	3298	13.220109365186	0
45	3325	13.352571056605	0
45	3325	13.352571056605	0
45	3340	13.352793056605	0
45	3340	13.352793056605	0
45	3353	13.384780782412	0
45	3353	13.384780782412	2
45	3355	13.384780782412	2
45	3355	13.384780782412	3
45	3358	13.384780782412	3
45	3358	13.384780782412	3
45	3363	13.385002782412	3
45	3363	13.385002782412	0
45	3364	13.385002782412	0
45	3364	13.385002782412	0
45	3405	13.447010104315	0
45	3405	13.447010104315	0
45	3410	13.447232104315	0
45	3410	13.447232104315	0
45	3460	13.719887361834	0
45	3460	13.719887361834	0
45	3475	13.720109361834	0
45	3475	13.720109361834	0
45	3506	13.852571052177	0
45	3506	13.852571052177	0
45	3521	13.852793052177	0
45	3521	13.852793052177	0
46	588	5.852570675034	512
46	646	5.88500324066	512
46	687	5.947232226678	512
46	744	6.220109034718	512
46	771	6.352570675034	512
46	828	6.385003241959	512
46	873	6.447232224439	512
46	922	6.720109017948	512
46	954	6.852570675034	512
46	1011	6.88500325169	512
46	1052	6.947232226803	512
46	1108	7.220108995094	512
46	1135	7.352570675034	512
46	1192	7.385003259849	512
46	1238	7.447232228206	512
46	1286	7.720108981764	512
46	1317	7.852570675034	512
46	1375	7.885003257357	512
46	1416	7.94723222243	512
46	1472	8.220108982535	512
46	1499	8.352570675034	512
46	1556	8.385003241976	512
46	1601	8.447232207794	512
46	1649	8.720108995239	512
46	1682	8.852570675034	512
46	1739	8.885003221146	512
46	1780	8.947232189569	512
46	1836	9.220109008783	512
46	1863	9.352570675034	512
46	1920	9.385003205192	512
46	1965	9.447232174656	512
46	2013	9.720109015469	512
46	2046	9.852570675034	512
46	2103	9.885003196729	512
46	2145	9.947232163778	512
46	2200	10.220109014949	512
46	2227	10.352570675034	512
46	2284	10.38500319422	512
46	2329	10.447232156268	512
46	2377	10.72010900895	512
46	2408	10.852570675034	512
46	2465	10.885003193891	512
46	2508	10.947232150558	512
46	2564	11.220109002261	512
46	2591	11.352570675034	512
46	2648	11.385003192077	512
46	2693	11.447232145384	512
46	2741	11.720108997881	512
46	2773	11.852570675034	512
46	2830	11.885003187178	512
46	2871	11.947232139544	512
46	2928	12.220108997408	512
46	2955	12.352570675034	512
46	3012	12.385003179152	512
46	3057	12.447232131908	512
46	3105	12.720108999848	512
46	3137	12.852570675034	512
46	3194	12.885003170392	512
46	3235	12.947232123409	512
46	3291	13.220109002801	512
46	3319	13.352570675034	512
46	3376	13.385003163618	512
46	3421	13.447232115504	512
46	3468	13.720109004905	512
46	3500	13.852570675034	512
47	577	5.852570675034	512
47	762	6.352570675034	512
47	945	6.852570675034	512
47	1126	7.352570675034	512
47	1308	7.852570675034	512
47	1490	8.352570675034	512
47	1673	8.852570675034	512
47	1854	9.352570675034	512
47	2037	9.852570675034	512
47	2218	10.352570675034	512
47	2399	10.852570675034	512
47	2582	11.352570675034	512
47	2764	11.852570675034	512
47	2946	12.352570675034	512
47	3128	12.852570675034	512
47	3310	13.352570675034	512
47	3491	13.852570675034	512
48	588	5.852570675034	0
48	646	5.88500324066	0.000222458248
48	687	5.947232226678	0.000222398445
48	744	6.220109034718	0.000222325409
48	771	6.352570675034	0
48	828	6.385003241959	0.000222459547
48	873	6.447232224439	0.000222396206
48	922	6.720109017948	0.000222308639
48	954	6.852570675034	0
48	1011	6.88500325169	0.000222469278
48	1052	6.947232226803	0.00022239857
48	1108	7.220108995094	0.000222285785
48	1135	7.352570675034	0
48	1192	7.385003259849	0.000222477437
48	1238	7.447232228206	0.000222399973
48	1286	7.720108981764	0.000222272455
48	1317	7.852570675034	0
48	1375	7.885003257357	0.000222474945
48	1416	7.94723222243	0.000222394197
48	1472	8.220108982535	0.000222273226
48	1499	8.352570675034	0
48	1556	8.385003241976	0.000222459564
48	1601	8.447232207794	0.000222379561
48	1649	8.720108995239	0.00022228593
48	1682	8.852570675034	0
48	1739	8.885003221146	0.000222438734
48	1780	8.947232189569	0.000222361336
48	1836	9.220109008783	0.000222299474
48	1863	9.352570675034	0
48	1920	9.385003205192	0.00022242278
48	1965	9.447232174656	0.000222346423
48	2013	9.720109015469	0.00022230616
48	2046	9.852570675034	0
48	2103	9.885003196729	0.000222414317
48	2145	9.947232163778	0.000222335545
48	2200	10.220109014949	0.00022230564
48	2227	10.352570675034	0
48	2284	10.38500319422	0.000222411808
48	2329	10.447232156268	0.000222328035
48	2377	10.72010900895	0.000222299641
48	2408	10.852570675034	0
48	2465	10.885003193891	0.000222411479
48	2508	10.947232150558	0.000222322325
48	2564	11.220109002261	0.000222292952
48	2591	11.352570675034	0
48	2648	11.385003192077	0.000222409665
48	2693	11.447232145384	0.000222317151
48	2741	11.720108997881	0.000222288572
48	2773	11.852570675034	0
48	2830	11.885003187178	0.000222404766
48	2871	11.947232139544	0.000222311311
48	2928	12.220108997408	0.000222288099
48	2955	12.352570675034	0
48	3012	12.385003179152	0.00022239674
48	3057	12.447232131908	0.000222303675
48	3105	12.720108999848	0.000222290539
48	3137	12.852570675034	0
48	3194	12.885003170392	0.00022238798
48	3235	12.947232123409	0.000222295176
48	3291	13.220109002801	0.000222293492
48	3319	13.352570675034	0
48	3376	13.385003163618	0.000222381206
48	3421	13.447232115504	0.000222287271
48	3468	13.720109004905	0.000222295596
48	3500	13.852570675034	0
50	580	5.852570675034	520
50	763	6.352570675034	520
50	946	6.852570675034	520
50	1127	7.352570675034	520
50	1309	7.852570675034	520
50	1491	8.352570675034	520
50	1674	8.852570675034	520
50	1855	9.352570675034	520
50	2038	9.852570675034	520
50	2219	10.352570675034	520
50	2400	10.852570675034	520
50	2583	11.352570675034	520
50	2765	11.852570675034	520
50	2947	12.352570675034	520
50	3129	12.852570675034	520
50	3311	13.352570675034	520
50	3492	13.852570675034	520
51	301	3.947232226789	520
51	371	4.447232226789	520
51	436	4.947232226789	520
[...]
83	2965	12.352792963664	576
83	3014	12.385003447241	576
83	3059	12.447232413964	576
83	3147	12.852792966411	576
83	3196	12.885003441295	576
83	3237	12.94723240865	576
83	3335	13.352792969234	576
83	3378	13.385003437021	576
83	3423	13.447232403446	576
83	3510	13.852792743784	576
84	544	5.719886709309	576
84	731	6.219886709309	576
84	909	6.719886709309	576
84	1095	7.219886709309	576
84	1273	7.719886709309	576
84	1459	8.219886709309	576
84	1636	8.719886709309	576
84	1823	9.219886709309	576
84	2000	9.719886709309	576
84	2187	10.219886709309	576
84	2364	10.719886709309	576
84	2551	11.219886709309	576
84	2728	11.719886709309	576
84	2915	12.219886709309	576
84	3092	12.719886709309	576
84	3278	13.219886709309	576
84	3455	13.719886709309	576
85	540	5.719886709309	576
85	727	6.219886709309	576
85	905	6.719886709309	576
85	1091	7.219886709309	576
85	1269	7.719886709309	576
85	1455	8.219886709309	576
85	1632	8.719886709309	576
85	1819	9.219886709309	576
85	1996	9.719886709309	576
85	2183	10.219886709309	576
85	2360	10.719886709309	576
85	2547	11.219886709309	576
85	2724	11.719886709309	576
85	2911	12.219886709309	576
85	3088	12.719886709309	576
85	3274	13.219886709309	576
85	3451	13.719886709309	576
86	303	3.947232552239	576
86	373	4.447232552239	576
86	438	4.947232552239	576
86	509	5.447232552239	576
86	598	5.852793003465	576
86	648	5.885003555877	576
86	689	5.947232551961	576
86	781	6.352792997523	576
86	830	6.385003549562	576
86	875	6.447232540236	576
86	964	6.852792976989	576
86	1013	6.88500353653	576
86	1054	6.947232519081	576
86	1145	7.352792955788	576
86	1194	7.385003522988	576
86	1240	7.447232500058	576
86	1327	7.85279294611	576
86	1377	7.885003511412	576
86	1418	7.947232487191	576
86	1509	8.352792950983	576
86	1558	8.385003501902	576
86	1603	8.44723248068	576
86	1692	8.852792965163	576
86	1741	8.885003495404	576
86	1782	8.947232477838	576
86	1873	9.352792977163	576
86	1922	9.385003490623	576
86	1967	9.447232473939	576
86	2056	9.852792981788	576
86	2105	9.885003485411	576
86	2147	9.947232465916	576
86	2237	10.352792979352	576
86	2286	10.385003478628	576
86	2331	10.447232453822	576
86	2418	10.8527929727	576
86	2467	10.885003470341	576
86	2510	10.947232440208	576
86	2601	11.352792966461	576
86	2650	11.385003461981	576
86	2695	11.447232428547	576
86	2783	11.852792963012	576
86	2832	11.885003454075	576
86	2873	11.947232419984	576
86	2965	12.352792963664	576
86	3014	12.385003447241	576
86	3059	12.447232413964	576
86	3147	12.852792966411	576
86	3196	12.885003441295	576
86	3237	12.94723240865	576
86	3335	13.352792969234	576
86	3378	13.385003437021	576
86	3423	13.447232403446	576
86	3510	13.852792743784	576
87	0	0	0
87	0	0	2
87	545	5.719886709309	3
87	551	5.720108709309	2
87	732	6.219886709309	3
87	738	6.220108709309	2
87	910	6.719886709309	3
87	916	6.720108709309	2
87	1096	7.219886709309	3
87	1102	7.220108709309	2
87	1274	7.719886709309	3
87	1280	7.720108709309	2
87	1460	8.219886709309	3
87	1466	8.220108709309	2
87	1637	8.719886709309	3
87	1643	8.720108709309	2
87	1824	9.219886709309	3
87	1830	9.220108709309	2
87	2001	9.719886709309	3
87	2007	9.720108709309	2
87	2188	10.219886709309	3
87	2194	10.220108709309	2
87	2365	10.719886709309	3
87	2371	10.720108709309	2
87	2552	11.219886709309	3
87	2558	11.220108709309	2
87	2729	11.719886709309	3
87	2735	11.720108709309	2
87	2916	12.219886709309	3
87	2922	12.220108709309	2
87	3093	12.719886709309	3
87	3099	12.720108709309	2
87	3279	13.219886709309	3
87	3285	13.220108709309	2
87	3456	13.719886709309	3
87	3462	13.720108709309	2
88	0	0	1
88	289	3.947010552239	3
88	302	3.947232552239	1
88	359	4.447010552239	3
88	372	4.447232552239	1
88	424	4.947010552239	3
88	437	4.947232552239	1
88	495	5.447010552239	3
88	508	5.447232552239	1
88	545	5.719886709309	0
88	551	5.720108709309	1
88	592	5.852571003465	3
88	597	5.852793003465	1
88	632	5.884781555877	3
88	647	5.885003555877	1
88	673	5.947010551961	3
88	688	5.947232551961	1
88	732	6.219886709309	0
88	738	6.220108709309	1
88	775	6.352570997523	3
88	780	6.352792997523	1
88	814	6.384781549562	3
88	829	6.385003549562	1
88	859	6.447010540236	3
88	874	6.447232540236	1
88	910	6.719886709309	0
88	916	6.720108709309	1
88	958	6.852570976989	3
88	963	6.852792976989	1
88	997	6.88478153653	3
88	1012	6.88500353653	1
88	1038	6.947010519081	3
88	1053	6.947232519081	1
88	1096	7.219886709309	0
88	1102	7.220108709309	1
88	1139	7.352570955788	3
88	1144	7.352792955788	1
88	1178	7.384781522988	3
88	1193	7.385003522988	1
88	1224	7.447010500058	3
88	1239	7.447232500058	1
88	1274	7.719886709309	0
88	1280	7.720108709309	1
88	1321	7.85257094611	3
88	1326	7.85279294611	1
88	1361	7.884781511412	3
88	1376	7.885003511412	1
88	1402	7.947010487191	3
88	1417	7.947232487191	1
88	1460	8.219886709309	0
88	1466	8.220108709309	1
88	1503	8.352570950983	3
88	1508	8.352792950983	1
88	1542	8.384781501902	3
88	1557	8.385003501902	1
88	1587	8.44701048068	3
88	1602	8.44723248068	1
88	1637	8.719886709309	0
88	1643	8.720108709309	1
88	1686	8.852570965163	3
88	1691	8.852792965163	1
88	1725	8.884781495404	3
88	1740	8.885003495404	1
88	1766	8.947010477838	3
88	1781	8.947232477838	1
88	1824	9.219886709309	0
88	1830	9.220108709309	1
88	1867	9.352570977163	3
88	1872	9.352792977163	1
88	1906	9.384781490623	3
88	1921	9.385003490623	1
88	1951	9.447010473939	3
88	1966	9.447232473939	1
88	2001	9.719886709309	0
88	2007	9.720108709309	1
88	2050	9.852570981788	3
88	2055	9.852792981788	1
88	2089	9.884781485411	3
88	2104	9.885003485411	1
88	2131	9.947010465916	3
88	2146	9.947232465916	1
88	2188	10.219886709309	0
88	2194	10.220108709309	1
88	2231	10.352570979352	3
88	2236	10.352792979352	1
88	2270	10.384781478628	3
88	2285	10.385003478628	1
88	2315	10.447010453822	3
88	2330	10.447232453822	1
88	2365	10.719886709309	0
88	2371	10.720108709309	1
88	2412	10.8525709727	3
88	2417	10.8527929727	1
88	2451	10.884781470341	3
88	2466	10.885003470341	1
88	2494	10.947010440208	3
88	2509	10.947232440208	1
88	2552	11.219886709309	0
88	2558	11.220108709309	1
88	2595	11.352570966461	3
88	2600	11.352792966461	1
88	2634	11.384781461981	3
88	2649	11.385003461981	1
88	2679	11.447010428547	3
88	2694	11.447232428547	1
88	2729	11.719886709309	0
88	2735	11.720108709309	1
88	2777	11.852570963012	3
88	2782	11.852792963012	1
88	2816	11.884781454075	3
88	2831	11.885003454075	1
88	2857	11.947010419984	3
88	2872	11.947232419984	1
88	2916	12.219886709309	0
88	2922	12.220108709309	1
88	2959	12.352570963664	3
88	2964	12.352792963664	1
88	2998	12.384781447241	3
88	3013	12.385003447241	1
88	3043	12.447010413964	3
88	3058	12.447232413964	1
88	3093	12.719886709309	0
88	3099	12.720108709309	1
88	3141	12.852570966411	3
88	3146	12.852792966411	1
88	3180	12.884781441295	3
88	3195	12.885003441295	1
88	3221	12.94701040865	3
88	3236	12.94723240865	1
88	3279	13.219886709309	0
88	3285	13.220108709309	1
88	3324	13.352570969234	3
88	3334	13.352792969234	1
88	3362	13.384781437021	3
88	3377	13.385003437021	1
88	3407	13.447010403446	3
88	3422	13.447232403446	1
88	3456	13.719886709309	0
88	3462	13.720108709309	1
88	3504	13.852570743784	3
88	3509	13.852792743784	1
89	545	5.719886709309	1
89	546	5.719886709309	2
89	550	5.720108709309	1
89	551	5.720108709309	0
89	732	6.219886709309	1
89	733	6.219886709309	2
89	737	6.220108709309	1
89	738	6.220108709309	0
89	910	6.719886709309	1
89	911	6.719886709309	2
89	915	6.720108709309	1
89	916	6.720108709309	0
89	1096	7.219886709309	1
89	1097	7.219886709309	2
89	1101	7.220108709309	1
89	1102	7.220108709309	0
89	1274	7.719886709309	1
89	1275	7.719886709309	2
89	1279	7.720108709309	1
89	1280	7.720108709309	0
89	1460	8.219886709309	1
89	1461	8.219886709309	2
89	1465	8.220108709309	1
89	1466	8.220108709309	0
89	1637	8.719886709309	1
89	1638	8.719886709309	2
89	1642	8.720108709309	1
89	1643	8.720108709309	0
89	1824	9.219886709309	1
89	1825	9.219886709309	2
89	1829	9.220108709309	1
89	1830	9.220108709309	0
89	2001	9.719886709309	1
89	2002	9.719886709309	2
89	2006	9.720108709309	1
89	2007	9.720108709309	0
89	2188	10.219886709309	1
89	2189	10.219886709309	2
89	2193	10.220108709309	1
89	2194	10.220108709309	0
89	2365	10.719886709309	1
89	2366	10.719886709309	2
89	2370	10.720108709309	1
89	2371	10.720108709309	0
89	2552	11.219886709309	1
89	2553	11.219886709309	2
89	2557	11.220108709309	1
89	2558	11.220108709309	0
89	2729	11.719886709309	1
89	2730	11.719886709309	2
89	2734	11.720108709309	1
89	2735	11.720108709309	0
89	2916	12.219886709309	1
89	2917	12.219886709309	2
89	2921	12.220108709309	1
89	2922	12.220108709309	0
89	3093	12.719886709309	1
89	3094	12.719886709309	2
89	3098	12.720108709309	1
89	3099	12.720108709309	0
89	3279	13.219886709309	1
89	3280	13.219886709309	2
89	3284	13.220108709309	1
89	3285	13.220108709309	0
89	3456	13.719886709309	1
89	3457	13.719886709309	2
89	3461	13.720108709309	1
89	3462	13.720108709309	0
90	0	0	0
91	0	0	0
91	0	0	0
91	0	0	0
91	0	0	0
91	289	3.947010552239	0
91	289	3.947010552239	0
91	302	3.947232552239	0
91	302	3.947232552239	0
91	359	4.447010552239	0
91	359	4.447010552239	0
91	372	4.447232552239	0
91	372	4.447232552239	0
91	424	4.947010552239	0
91	424	4.947010552239	0
91	437	4.947232552239	0
91	437	4.947232552239	0
91	495	5.447010552239	0
91	495	5.447010552239	0
91	508	5.447232552239	0
91	508	5.447232552239	0
91	540	5.719886709309	0
91	540	5.719886709309	2
91	542	5.719886709309	2
91	542	5.719886709309	3
91	545	5.719886709309	3
91	545	5.719886709309	3
91	550	5.720108709309	3
91	550	5.720108709309	0
91	551	5.720108709309	0
91	551	5.720108709309	0
91	592	5.852571003465	0
91	592	5.852571003465	0
91	597	5.852793003465	0
91	597	5.852793003465	0
91	632	5.884781555877	0
91	632	5.884781555877	0
91	647	5.885003555877	0
91	647	5.885003555877	0
91	673	5.947010551961	0
91	673	5.947010551961	0
91	688	5.947232551961	0
91	688	5.947232551961	0
91	727	6.219886709309	0
91	727	6.219886709309	2
91	729	6.219886709309	2
91	729	6.219886709309	3
91	732	6.219886709309	3
91	732	6.219886709309	3
91	737	6.220108709309	3
91	737	6.220108709309	0
91	738	6.220108709309	0
91	738	6.220108709309	0
91	775	6.352570997523	0
91	775	6.352570997523	0
91	780	6.352792997523	0
91	780	6.352792997523	0
91	814	6.384781549562	0
91	814	6.384781549562	0
91	829	6.385003549562	0
91	829	6.385003549562	0
91	859	6.447010540236	0
91	859	6.447010540236	0
91	874	6.447232540236	0
91	874	6.447232540236	0
91	905	6.719886709309	0
91	905	6.719886709309	2
91	907	6.719886709309	2
91	907	6.719886709309	3
91	910	6.719886709309	3
91	910	6.719886709309	3
91	915	6.720108709309	3
91	915	6.720108709309	0
91	916	6.720108709309	0
91	916	6.720108709309	0
91	958	6.852570976989	0
91	958	6.852570976989	0
91	963	6.852792976989	0
91	963	6.852792976989	0
91	997	6.88478153653	0
91	997	6.88478153653	0
91	1012	6.88500353653	0
91	1012	6.88500353653	0
91	1038	6.947010519081	0
91	1038	6.947010519081	0
91	1053	6.947232519081	0
91	1053	6.947232519081	0
91	1091	7.219886709309	0
91	1091	7.219886709309	2
91	1093	7.219886709309	2
91	1093	7.219886709309	3
91	1096	7.219886709309	3
91	1096	7.219886709309	3
91	1101	7.220108709309	3
91	1101	7.220108709309	0
91	1102	7.220108709309	0
91	1102	7.220108709309	0
91	1139	7.352570955788	0
91	1139	7.352570955788	0
91	1144	7.352792955788	0
91	1144	7.352792955788	0
91	1178	7.384781522988	0
91	1178	7.384781522988	0
91	1193	7.385003522988	0
91	1193	7.385003522988	0
91	1224	7.447010500058	0
91	1224	7.447010500058	0
91	1239	7.447232500058	0
91	1239	7.447232500058	0
91	1269	7.719886709309	0
91	1269	7.719886709309	2
91	1271	7.719886709309	2
91	1271	7.719886709309	3
91	1274	7.719886709309	3
91	1274	7.719886709309	3
91	1279	7.720108709309	3
91	1279	7.720108709309	0
91	1280	7.720108709309	0
91	1280	7.720108709309	0
91	1321	7.85257094611	0
91	1321	7.85257094611	0
91	1326	7.85279294611	0
91	1326	7.85279294611	0
91	1361	7.884781511412	0
91	1361	7.884781511412	0
91	1376	7.885003511412	0
91	1376	7.885003511412	0
91	1402	7.947010487191	0
91	1402	7.947010487191	0
91	1417	7.947232487191	0
91	1417	7.947232487191	0
91	1455	8.219886709309	0
91	1455	8.219886709309	2
91	1457	8.219886709309	2
91	1457	8.219886709309	3
91	1460	8.219886709309	3
91	1460	8.219886709309	3
91	1465	8.220108709309	3
91	1465	8.220108709309	0
91	1466	8.220108709309	0
91	1466	8.220108709309	0
91	1503	8.352570950983	0
91	1503	8.352570950983	0
91	1508	8.352792950983	0
91	1508	8.352792950983	0
91	1542	8.384781501902	0
91	1542	8.384781501902	0
91	1557	8.385003501902	0
91	1557	8.385003501902	0
91	1587	8.44701048068	0
91	1587	8.44701048068	0
91	1602	8.44723248068	0
91	1602	8.44723248068	0
91	1632	8.719886709309	0
91	1632	8.719886709309	2
91	1634	8.719886709309	2
91	1634	8.719886709309	3
91	1637	8.719886709309	3
91	1637	8.719886709309	3
91	1642	8.720108709309	3
91	1642	8.720108709309	0
91	1643	8.720108709309	0
91	1643	8.720108709309	0
91	1686	8.852570965163	0
91	1686	8.852570965163	0
91	1691	8.852792965163	0
91	1691	8.852792965163	0
91	1725	8.884781495404	0
91	1725	8.884781495404	0
91	1740	8.885003495404	0
91	1740	8.885003495404	0
91	1766	8.947010477838	0
91	1766	8.947010477838	0
91	1781	8.947232477838	0
91	1781	8.947232477838	0
91	1819	9.219886709309	0
91	1819	9.219886709309	2
91	1821	9.219886709309	2
91	1821	9.219886709309	3
91	1824	9.219886709309	3
91	1824	9.219886709309	3
91	1829	9.220108709309	3
91	1829	9.220108709309	0
91	1830	9.220108709309	0
91	1830	9.220108709309	0
91	1867	9.352570977163	0
91	1867	9.352570977163	0
91	1872	9.352792977163	0
91	1872	9.352792977163	0
91	1906	9.384781490623	0
91	1906	9.384781490623	0
91	1921	9.385003490623	0
91	1921	9.385003490623	0
91	1951	9.447010473939	0
91	1951	9.447010473939	0
91	1966	9.447232473939	0
91	1966	9.447232473939	0
91	1996	9.719886709309	0
91	1996	9.719886709309	2
91	1998	9.719886709309	2
91	1998	9.719886709309	3
91	2001	9.719886709309	3
91	2001	9.719886709309	3
91	2006	9.720108709309	3
91	2006	9.720108709309	0
91	2007	9.720108709309	0
91	2007	9.720108709309	0
91	2050	9.852570981788	0
91	2050	9.852570981788	0
91	2055	9.852792981788	0
91	2055	9.852792981788	0
91	2089	9.884781485411	0
91	2089	9.884781485411	0
91	2104	9.885003485411	0
91	2104	9.885003485411	0
91	2131	9.947010465916	0
91	2131	9.947010465916	0
91	2146	9.947232465916	0
91	2146	9.947232465916	0
91	2183	10.219886709309	0
91	2183	10.219886709309	2
91	2185	10.219886709309	2
91	2185	10.219886709309	3
91	2188	10.219886709309	3
91	2188	10.219886709309	3
91	2193	10.220108709309	3
91	2193	10.220108709309	0
91	2194	10.220108709309	0
91	2194	10.220108709309	0
91	2231	10.352570979352	0
91	2231	10.352570979352	0
91	2236	10.352792979352	0
91	2236	10.352792979352	0
91	2270	10.384781478628	0
91	2270	10.384781478628	0
91	2285	10.385003478628	0
91	2285	10.385003478628	0
91	2315	10.447010453822	0
91	2315	10.447010453822	0
91	2330	10.447232453822	0
91	2330	10.447232453822	0
91	2360	10.719886709309	0
91	2360	10.719886709309	2
91	2362	10.719886709309	2
91	2362	10.719886709309	3
91	2365	10.719886709309	3
91	2365	10.719886709309	3
91	2370	10.720108709309	3
91	2370	10.720108709309	0
91	2371	10.720108709309	0
91	2371	10.720108709309	0
91	2412	10.8525709727	0
91	2412	10.8525709727	0
91	2417	10.8527929727	0
91	2417	10.8527929727	0
91	2451	10.884781470341	0
91	2451	10.884781470341	0
91	2466	10.885003470341	0
91	2466	10.885003470341	0
91	2494	10.947010440208	0
91	2494	10.947010440208	0
91	2509	10.947232440208	0
91	2509	10.947232440208	0
91	2547	11.219886709309	0
91	2547	11.219886709309	2
91	2549	11.219886709309	2
91	2549	11.219886709309	3
91	2552	11.219886709309	3
91	2552	11.219886709309	3
91	2557	11.220108709309	3
91	2557	11.220108709309	0
91	2558	11.220108709309	0
91	2558	11.220108709309	0
91	2595	11.352570966461	0
91	2595	11.352570966461	0
91	2600	11.352792966461	0
91	2600	11.352792966461	0
91	2634	11.384781461981	0
91	2634	11.384781461981	0
91	2649	11.385003461981	0
91	2649	11.385003461981	0
91	2679	11.447010428547	0
91	2679	11.447010428547	0
91	2694	11.447232428547	0
91	2694	11.447232428547	0
91	2724	11.719886709309	0
91	2724	11.719886709309	2
91	2726	11.719886709309	2
91	2726	11.719886709309	3
91	2729	11.719886709309	3
91	2729	11.719886709309	3
91	2734	11.720108709309	3
91	2734	11.720108709309	0
91	2735	11.720108709309	0
91	2735	11.720108709309	0
91	2777	11.852570963012	0
91	2777	11.852570963012	0
91	2782	11.852792963012	0
91	2782	11.852792963012	0
91	2816	11.884781454075	0
91	2816	11.884781454075	0
91	2831	11.885003454075	0
91	2831	11.885003454075	0
91	2857	11.947010419984	0
91	2857	11.947010419984	0
91	2872	11.947232419984	0
91	2872	11.947232419984	0
91	2911	12.219886709309	0
91	2911	12.219886709309	2
91	2913	12.219886709309	2
91	2913	12.219886709309	3
91	2916	12.219886709309	3
91	2916	12.219886709309	3
91	2921	12.220108709309	3
91	2921	12.220108709309	0
91	2922	12.220108709309	0
91	2922	12.220108709309	0
91	2959	12.352570963664	0
91	2959	12.352570963664	0
91	2964	12.352792963664	0
91	2964	12.352792963664	0
91	2998	12.384781447241	0
91	2998	12.384781447241	0
91	3013	12.385003447241	0
91	3013	12.385003447241	0
91	3043	12.447010413964	0
91	3043	12.447010413964	0
91	3058	12.447232413964	0
91	3058	12.447232413964	0
91	3088	12.719886709309	0
91	3088	12.719886709309	2
91	3090	12.719886709309	2
91	3090	12.719886709309	3
91	3093	12.719886709309	3
91	3093	12.719886709309	3
91	3098	12.720108709309	3
91	3098	12.720108709309	0
91	3099	12.720108709309	0
91	3099	12.720108709309	0
91	3141	12.852570966411	0
91	3141	12.852570966411	0
91	3146	12.852792966411	0
91	3146	12.852792966411	0
91	3180	12.884781441295	0
91	3180	12.884781441295	0
91	3195	12.885003441295	0
91	3195	12.885003441295	0
91	3221	12.94701040865	0
91	3221	12.94701040865	0
91	3236	12.94723240865	0
91	3236	12.94723240865	0
91	3274	13.219886709309	0
91	3274	13.219886709309	2
91	3276	13.219886709309	2
91	3276	13.219886709309	3
91	3279	13.219886709309	3
91	3279	13.219886709309	3
91	3284	13.220108709309	3
91	3284	13.220108709309	0
91	3285	13.220108709309	0
91	3285	13.220108709309	0
91	3324	13.352570969234	0
91	3324	13.352570969234	0
91	3334	13.352792969234	0
91	3334	13.352792969234	0
91	3362	13.384781437021	0
91	3362	13.384781437021	0
91	3377	13.385003437021	0
91	3377	13.385003437021	0
91	3407	13.447010403446	0
91	3407	13.447010403446	0
91	3422	13.447232403446	0
91	3422	13.447232403446	0
91	3451	13.719886709309	0
91	3451	13.719886709309	2
91	3453	13.719886709309	2
91	3453	13.719886709309	3
91	3456	13.719886709309	3
91	3456	13.719886709309	3
91	3461	13.720108709309	3
91	3461	13.720108709309	0
91	3462	13.720108709309	0
91	3462	13.720108709309	0
91	3504	13.852570743784	0
91	3504	13.852570743784	0
91	3509	13.852792743784	0
91	3509	13.852792743784	0
92	67	1	1
92	135	2	1
92	204	3	1
92	308	4	1
92	443	5	1
92	696	6	0.83365200764818
92	1060	7	0.94455066921606
92	1424	8	0.98419375398343
92	1788	9	0.9151051625239
92	2153	10	0.89649458253665
92	2516	11	0.94263862332696
92	2879	12	0.93511790949649
92	3243	13	0.87839388145315
93	67	1	1
93	135	2	1
93	204	3	1
93	308	4	1
93	443	5	1
93	696	6	1
93	1060	7	1
93	1424	8	1
93	1788	9	1
93	2153	10	1
93	2516	11	1
93	2879	12	1
93	3243	13	1
94	67	1	4
94	135	2	4
94	204	3	4
94	308	4	4
94	443	5	4
94	696	6	4
94	1060	7	4
94	1424	8	4
94	1788	9	4
94	2153	10	4
94	2516	11	4
94	2879	12	4
94	3243	13	4
95	67	1	0
95	135	2	0
95	204	3	0
95	308	4	0
95	443	5	0
95	696	6	0
95	1060	7	0
95	1424	8	0
95	1788	9	0
95	2153	10	0
95	2516	11	0
95	2879	12	0
95	3243	13	0
96	68	1	1
96	136	2	1
96	205	3	1
96	309	4	1
96	444	5	1
96	697	6	0.83314212874442
96	1061	7	0.9465901848311
96	1425	8	0.98304652644997
96	1789	9	0.9112810707457
96	2154	10	0.89662205226259
96	2517	11	0.95130656469089
96	2880	12	0.95398342893563
96	3244	13	0.92249840662843
100	69	1	1
100	137	2	1
100	206	3	1
100	310	4	1
100	445	5	1
100	698	6	1
100	1062	7	0.96966220522626
100	1426	8	0.91204588910134
100	1790	9	0.94837476099426
100	2155	10	0.97501593371574
100	2518	11	0.95398342893563
100	2881	12	0.92173358827279
100	3245	13	0.90210325047801
104	70	1	1
104	138	2	1
104	207	3	1
104	311	4	1
104	446	5	1
104	699	6	0.99732313575526
104	1063	7	0.95729764181007
104	1427	8	0.90350541746335
104	1791	9	0.94684512428298
104	2156	10	0.97208413001912
104	2519	11	0.95500318674315
104	2882	12	0.94008922880816
104	3246	13	0.94735500318674
