file 134879 1475675092                                          
version 2
run General-0-20161005-15:43:33-14169
attr configname General
attr datetime 20161005-15:43:33
attr experiment General
attr inifile omnetpp.ini
attr iterationvars ""
attr iterationvars2 $repetition=0
attr measurement ""
attr network Net80211test
attr processid 14169
attr repetition 0
attr replication #0
attr resultdir results
attr runnumber 0
attr seedset 0
param **.constraintAreaMaxX 600m
param **.constraintAreaMaxY 400m
param **.constraintAreaMaxZ 0m
param **.constraintAreaMinX 0m
param **.constraintAreaMinY 0m
param **.constraintAreaMinZ 0m
param **.host*.mobility.initFromDisplayString false
param **.host*.mobility.initialX "normal(300m, 50m)"
param **.host*.mobility.initialY "normal(200m, 50m)"
param **.host*.mobility.updateInterval 100ms
param **.host*.mobilityType "\"VirtualSpringMobility\""
param **.host[*].battery.flightHeight 1m
param **.host[*].battery.initialCapacity 55J
param **.host[*].battery.swapHeightFactor 0
param **.host[*].networkLayerType "\"IPv4ExtNetworkLayer\""
param **.host[*].udpType "\"UDPExt\""
param **.ip.forceBroadcast true
param **.udpApp[0].chargingStationNumber 1
param **.udpApp[0].checkRechargeTimer 1s
param **.udpApp[0].destAddresses "\"255.255.255.255\""
param **.udpApp[0].destPort 100
param **.udpApp[0].isCentralized true
param **.udpApp[0].localAddress "\"\""
param **.udpApp[0].localPort 100
param **.udpApp[0].messageLength 512B
param **.udpApp[0].receiveBroadcast true
param **.udpApp[0].schedulingType "\"STIMULUS\""
param **.udpApp[0].sendInterval 0.5s
param **.udpApp[0].startTime "truncnormal(5s, 1s)"
param **.wlan[*].bitrate 2Mbps
param **.wlan[*].mac.address "\"auto\""
param **.wlan[*].mac.cwMinBroadcast 31
param **.wlan[*].mac.cwMinData 7
param **.wlan[*].mac.maxQueueSize 14
param **.wlan[*].mac.retryLimit 7
param **.wlan[*].mac.rtsThresholdBytes 3000B
param **.wlan[*].macType "\"Ieee80211MacExt\""
param **.wlan[*].mgmt.frameCapacity 10
param **.wlan[*].mgmtType "\"Ieee80211MgmtAdhocExt\""
param **.wlan[*].radio.receiver.sensitivity -85dBm
param **.wlan[*].radio.receiver.snirThreshold 4dB
param **.wlan[*].radio.receiverType "\"Ieee80211ScalarReceiverExt\""
param **.wlan[*].radio.transmitter.power 100mW
param *.host[*].numUdpApps 1
param *.host[*].udpApp[*].typename "\"UDPBasicRecharge\""
param *.numHosts 4

vector 22  Net80211test.host[0].wlan[0].mac.ctn[0]  state:vector  ETV
attr interpolationmode  none
attr source  stateChanged
attr title  "contention state, vector"
vector 45  Net80211test.host[1].wlan[0].mac.ctn[0]  state:vector  ETV
attr interpolationmode  none
attr source  stateChanged
attr title  "contention state, vector"
vector 68  Net80211test.host[2].wlan[0].mac.ctn[0]  state:vector  ETV
attr interpolationmode  none
attr source  stateChanged
attr title  "contention state, vector"
vector 91  Net80211test.host[3].wlan[0].mac.ctn[0]  state:vector  ETV
attr interpolationmode  none
attr source  stateChanged
attr title  "contention state, vector"
vector 18  Net80211test.host[0].wlan[0].radio  radioMode:vector  ETV
attr interpolationmode  sample-hold
attr source  radioModeChanged
attr title  "Radio mode, vector"
vector 21  Net80211test.host[0].wlan[0].radio  radioChannel:vector  ETV
attr interpolationmode  sample-hold
attr source  radioChannelChanged
attr title  "Radio channel, vector"
vector 41  Net80211test.host[1].wlan[0].radio  radioMode:vector  ETV
attr interpolationmode  sample-hold
attr source  radioModeChanged
attr title  "Radio mode, vector"
vector 44  Net80211test.host[1].wlan[0].radio  radioChannel:vector  ETV
attr interpolationmode  sample-hold
attr source  radioChannelChanged
attr title  "Radio channel, vector"
vector 64  Net80211test.host[2].wlan[0].radio  radioMode:vector  ETV
attr interpolationmode  sample-hold
attr source  radioModeChanged
attr title  "Radio mode, vector"
vector 67  Net80211test.host[2].wlan[0].radio  radioChannel:vector  ETV
attr interpolationmode  sample-hold
attr source  radioChannelChanged
attr title  "Radio channel, vector"
vector 87  Net80211test.host[3].wlan[0].radio  radioMode:vector  ETV
attr interpolationmode  sample-hold
attr source  radioModeChanged
attr title  "Radio mode, vector"
vector 90  Net80211test.host[3].wlan[0].radio  radioChannel:vector  ETV
attr interpolationmode  sample-hold
attr source  radioChannelChanged
attr title  "Radio channel, vector"
vector 19  Net80211test.host[0].wlan[0].radio  receptionState:vector  ETV
attr interpolationmode  sample-hold
attr source  receptionStateChanged
attr title  "Radio reception state, vector"
vector 42  Net80211test.host[1].wlan[0].radio  receptionState:vector  ETV
attr interpolationmode  sample-hold
attr source  receptionStateChanged
attr title  "Radio reception state, vector"
vector 65  Net80211test.host[2].wlan[0].radio  receptionState:vector  ETV
attr interpolationmode  sample-hold
attr source  receptionStateChanged
attr title  "Radio reception state, vector"
vector 88  Net80211test.host[3].wlan[0].radio  receptionState:vector  ETV
attr interpolationmode  sample-hold
attr source  receptionStateChanged
attr title  "Radio reception state, vector"
vector 92  Net80211test.host[0].udpApp[0]  personalCoverage  ETV
vector 93  Net80211test.host[0].udpApp[0]  totalCoverage  ETV
vector 94  Net80211test.host[0].udpApp[0]  activeNodes  ETV
vector 95  Net80211test.host[0].udpApp[0]  rechargingNodes  ETV
vector 96  Net80211test.host[1].udpApp[0]  personalCoverage  ETV
vector 100  Net80211test.host[2].udpApp[0]  personalCoverage  ETV
vector 104  Net80211test.host[3].udpApp[0]  personalCoverage  ETV
vector 1  Net80211test.host[0].udpApp[0]  sentPk:vector(packetBytes)  ETV
attr interpolationmode  none
attr source  sentPk
attr title  "packets sent, vector(packetBytes)"
vector 4  Net80211test.host[0].udp  sentPk:vector(packetBytes)  ETV
attr interpolationmode  none
attr source  sentPk
attr title  "packets sent, vector(packetBytes)"
vector 12  Net80211test.host[0].lo0.lo  rcvdPkFromHL:vector(packetBytes)  ETV
attr interpolationmode  none
attr source  packetReceivedFromUpper
attr title  "packets received from higher layer, vector(packetBytes)"
vector 13  Net80211test.host[0].lo0.lo  passedUpPk:vector(packetBytes)  ETV
attr interpolationmode  none
attr source  packetSentToUpper
attr title  "packets passed to higher layer, vector(packetBytes)"
vector 16  Net80211test.host[0].wlan[0].mac  rcvdPkFromHL:vector(packetBytes)  ETV
attr interpolationmode  none
attr source  packetReceivedFromUpper
attr title  "packets received from higher layer, vector(packetBytes)"
vector 5  Net80211test.host[0].udp  rcvdPk:vector(packetBytes)  ETV
attr interpolationmode  none
attr source  rcvdPk
attr title  "packets received, vector(packetBytes)"
vector 6  Net80211test.host[0].udp  passedUpPk:vector(count)  ETV
attr interpolationmode  none
attr title  "packets passed up, vector(count)"
vector 0  Net80211test.host[0].udpApp[0]  rcvdPk:vector(packetBytes)  ETV
attr interpolationmode  none
attr source  rcvdPk
attr title  "packets received, vector(packetBytes)"
vector 2  Net80211test.host[0].udpApp[0]  rcvdPkLifetime:vector  ETV
attr interpolationmode  none
attr source  messageAge(rcvdPk)
attr title  "received packet lifetime, vector"
attr unit  s
vector 15  Net80211test.host[0].wlan[0].mac  sentDownPk:vector(packetBytes)  ETV
attr interpolationmode  none
attr source  packetSentToLower
attr title  "packets sent to lower layer, vector(packetBytes)"
vector 20  Net80211test.host[0].wlan[0].radio  transmissionState:vector  ETV
attr interpolationmode  sample-hold
attr source  transmissionStateChanged
attr title  "Radio transmission state, vector"
vector 40  Net80211test.host[1].wlan[0].mac  rcvdPkFromLL:vector(packetBytes)  ETV
attr interpolationmode  none
attr source  packetReceivedFromLower
attr title  "packets received from lower layer, vector(packetBytes)"
vector 37  Net80211test.host[1].wlan[0].mac  passedUpPk:vector(packetBytes)  ETV
attr interpolationmode  none
attr source  packetSentToUpper
attr title  "packets passed to higher layer, vector(packetBytes)"
vector 28  Net80211test.host[1].udp  rcvdPk:vector(packetBytes)  ETV
attr interpolationmode  none
attr source  rcvdPk
attr title  "packets received, vector(packetBytes)"
vector 30  Net80211test.host[1].udp  droppedPkWrongPort:vector(count)  ETV
attr interpolationmode  none
attr title  "packets dropped (wrong port), vector(count)"
vector 63  Net80211test.host[2].wlan[0].mac  rcvdPkFromLL:vector(packetBytes)  ETV
attr interpolationmode  none
attr source  packetReceivedFromLower
attr title  "packets received from lower layer, vector(packetBytes)"
vector 60  Net80211test.host[2].wlan[0].mac  passedUpPk:vector(packetBytes)  ETV
attr interpolationmode  none
attr source  packetSentToUpper
attr title  "packets passed to higher layer, vector(packetBytes)"
vector 51  Net80211test.host[2].udp  rcvdPk:vector(packetBytes)  ETV
attr interpolationmode  none
attr source  rcvdPk
attr title  "packets received, vector(packetBytes)"
vector 53  Net80211test.host[2].udp  droppedPkWrongPort:vector(count)  ETV
attr interpolationmode  none
attr title  "packets dropped (wrong port), vector(count)"
vector 86  Net80211test.host[3].wlan[0].mac  rcvdPkFromLL:vector(packetBytes)  ETV
attr interpolationmode  none
attr source  packetReceivedFromLower
attr title  "packets received from lower layer, vector(packetBytes)"
vector 83  Net80211test.host[3].wlan[0].mac  passedUpPk:vector(packetBytes)  ETV
attr interpolationmode  none
attr source  packetSentToUpper
attr title  "packets passed to higher layer, vector(packetBytes)"
vector 74  Net80211test.host[3].udp  rcvdPk:vector(packetBytes)  ETV
attr interpolationmode  none
attr source  rcvdPk
attr title  "packets received, vector(packetBytes)"
vector 76  Net80211test.host[3].udp  droppedPkWrongPort:vector(count)  ETV
attr interpolationmode  none
attr title  "packets dropped (wrong port), vector(count)"
vector 70  Net80211test.host[3].udpApp[0]  sentPk:vector(packetBytes)  ETV
attr interpolationmode  none
attr source  sentPk
attr title  "packets sent, vector(packetBytes)"
vector 73  Net80211test.host[3].udp  sentPk:vector(packetBytes)  ETV
attr interpolationmode  none
attr source  sentPk
attr title  "packets sent, vector(packetBytes)"
vector 81  Net80211test.host[3].lo0.lo  rcvdPkFromHL:vector(packetBytes)  ETV
attr interpolationmode  none
attr source  packetReceivedFromUpper
attr title  "packets received from higher layer, vector(packetBytes)"
vector 82  Net80211test.host[3].lo0.lo  passedUpPk:vector(packetBytes)  ETV
attr interpolationmode  none
attr source  packetSentToUpper
attr title  "packets passed to higher layer, vector(packetBytes)"
vector 85  Net80211test.host[3].wlan[0].mac  rcvdPkFromHL:vector(packetBytes)  ETV
attr interpolationmode  none
attr source  packetReceivedFromUpper
attr title  "packets received from higher layer, vector(packetBytes)"
vector 75  Net80211test.host[3].udp  passedUpPk:vector(count)  ETV
attr interpolationmode  none
attr title  "packets passed up, vector(count)"
vector 69  Net80211test.host[3].udpApp[0]  rcvdPk:vector(packetBytes)  ETV
attr interpolationmode  none
attr source  rcvdPk
attr title  "packets received, vector(packetBytes)"
vector 71  Net80211test.host[3].udpApp[0]  rcvdPkLifetime:vector  ETV
attr interpolationmode  none
attr source  messageAge(rcvdPk)
attr title  "received packet lifetime, vector"
attr unit  s
vector 84  Net80211test.host[3].wlan[0].mac  sentDownPk:vector(packetBytes)  ETV
attr interpolationmode  none
attr source  packetSentToLower
attr title  "packets sent to lower layer, vector(packetBytes)"
vector 89  Net80211test.host[3].wlan[0].radio  transmissionState:vector  ETV
attr interpolationmode  sample-hold
attr source  transmissionStateChanged
attr title  "Radio transmission state, vector"
vector 17  Net80211test.host[0].wlan[0].mac  rcvdPkFromLL:vector(packetBytes)  ETV
attr interpolationmode  none
attr source  packetReceivedFromLower
attr title  "packets received from lower layer, vector(packetBytes)"
vector 14  Net80211test.host[0].wlan[0].mac  passedUpPk:vector(packetBytes)  ETV
attr interpolationmode  none
attr source  packetSentToUpper
attr title  "packets passed to higher layer, vector(packetBytes)"
vector 47  Net80211test.host[2].udpApp[0]  sentPk:vector(packetBytes)  ETV
attr interpolationmode  none
attr source  sentPk
attr title  "packets sent, vector(packetBytes)"
vector 50  Net80211test.host[2].udp  sentPk:vector(packetBytes)  ETV
attr interpolationmode  none
attr source  sentPk
attr title  "packets sent, vector(packetBytes)"
vector 58  Net80211test.host[2].lo0.lo  rcvdPkFromHL:vector(packetBytes)  ETV
attr interpolationmode  none
attr source  packetReceivedFromUpper
attr title  "packets received from higher layer, vector(packetBytes)"
vector 59  Net80211test.host[2].lo0.lo  passedUpPk:vector(packetBytes)  ETV
attr interpolationmode  none
attr source  packetSentToUpper
attr title  "packets passed to higher layer, vector(packetBytes)"
vector 62  Net80211test.host[2].wlan[0].mac  rcvdPkFromHL:vector(packetBytes)  ETV
attr interpolationmode  none
attr source  packetReceivedFromUpper
attr title  "packets received from higher layer, vector(packetBytes)"
vector 52  Net80211test.host[2].udp  passedUpPk:vector(count)  ETV
attr interpolationmode  none
attr title  "packets passed up, vector(count)"
vector 46  Net80211test.host[2].udpApp[0]  rcvdPk:vector(packetBytes)  ETV
attr interpolationmode  none
attr source  rcvdPk
attr title  "packets received, vector(packetBytes)"
vector 48  Net80211test.host[2].udpApp[0]  rcvdPkLifetime:vector  ETV
attr interpolationmode  none
attr source  messageAge(rcvdPk)
attr title  "received packet lifetime, vector"
attr unit  s
vector 61  Net80211test.host[2].wlan[0].mac  sentDownPk:vector(packetBytes)  ETV
attr interpolationmode  none
attr source  packetSentToLower
attr title  "packets sent to lower layer, vector(packetBytes)"
vector 66  Net80211test.host[2].wlan[0].radio  transmissionState:vector  ETV
attr interpolationmode  sample-hold
attr source  transmissionStateChanged
attr title  "Radio transmission state, vector"
vector 24  Net80211test.host[1].udpApp[0]  sentPk:vector(packetBytes)  ETV
attr interpolationmode  none
attr source  sentPk
attr title  "packets sent, vector(packetBytes)"
vector 27  Net80211test.host[1].udp  sentPk:vector(packetBytes)  ETV
attr interpolationmode  none
attr source  sentPk
attr title  "packets sent, vector(packetBytes)"
vector 35  Net80211test.host[1].lo0.lo  rcvdPkFromHL:vector(packetBytes)  ETV
attr interpolationmode  none
attr source  packetReceivedFromUpper
attr title  "packets received from higher layer, vector(packetBytes)"
vector 36  Net80211test.host[1].lo0.lo  passedUpPk:vector(packetBytes)  ETV
attr interpolationmode  none
attr source  packetSentToUpper
attr title  "packets passed to higher layer, vector(packetBytes)"
vector 39  Net80211test.host[1].wlan[0].mac  rcvdPkFromHL:vector(packetBytes)  ETV
attr interpolationmode  none
attr source  packetReceivedFromUpper
attr title  "packets received from higher layer, vector(packetBytes)"
vector 29  Net80211test.host[1].udp  passedUpPk:vector(count)  ETV
attr interpolationmode  none
attr title  "packets passed up, vector(count)"
vector 23  Net80211test.host[1].udpApp[0]  rcvdPk:vector(packetBytes)  ETV
attr interpolationmode  none
attr source  rcvdPk
attr title  "packets received, vector(packetBytes)"
vector 25  Net80211test.host[1].udpApp[0]  rcvdPkLifetime:vector  ETV
attr interpolationmode  none
attr source  messageAge(rcvdPk)
attr title  "received packet lifetime, vector"
attr unit  s
vector 38  Net80211test.host[1].wlan[0].mac  sentDownPk:vector(packetBytes)  ETV
attr interpolationmode  none
attr source  packetSentToLower
attr title  "packets sent to lower layer, vector(packetBytes)"
vector 43  Net80211test.host[1].wlan[0].radio  transmissionState:vector  ETV
attr interpolationmode  sample-hold
attr source  transmissionStateChanged
attr title  "Radio transmission state, vector"
0	15938 1826 283 3520 3.947009828233 13.852792956668 70 512 512 35840 18350080
1	17764 521 272 3392 3.947009828233 13.447009828233 20 512 512 10240 5242880
2	18285 2334 283 3520 3.947009828233 13.852792956668 70 0 0.000222724006 0.011121259801 2.4736496696764e-06
4	20619 521 275 3393 3.947009828233 13.447009828233 20 520 520 10400 5408000
5	21140 1826 281 3519 3.947009828233 13.852792956668 70 520 520 36400 18928000
6	22966 1747 281 3519 3.947009828233 13.852792956668 70 1 70 2485 116795
12	24713 541 277 3395 3.947009828233 13.447009828233 20 540 540 10800 5832000
13	25254 541 277 3395 3.947009828233 13.447009828233 20 540 540 10800 5832000
14	25795 1355 558 3516 5.720109433315 13.852792956668 50 576 576 28800 16588800
15	27150 541 284 3402 3.947009828233 13.447009828233 20 576 576 11520 6635520
16	27691 541 280 3398 3.947009828233 13.447009828233 20 576 576 11520 6635520
17	28232 1355 558 3516 5.720109433315 13.852792956668 50 576 576 28800 16588800
18	29587 1020 0 3409 0 13.447231828233 42 0 3 102 264
19	30607 3520 0 3515 0 13.852792956668 141 0 3 221 521
20	34127 2004 285 3409 3.947009828233 13.447231828233 80 0 2 80 120
21	36131 9 0 0 0 0 1 0 0 0 0
22	36140 10064 0 3515 0 13.852792956668 404 0 3 320 880
23	46204 1746 626 3526 5.884780782412 13.852793052177 64 512 512 32768 16777216
24	47950 436 615 3347 5.884780782412 13.384780782412 16 512 512 8192 4194304
25	48386 2237 626 3526 5.884780782412 13.852793052177 64 0 0.000222770459 0.010678574564 2.3756672231312e-06
27	50623 436 618 3348 5.884780782412 13.384780782412 16 520 520 8320 4326400
28	51059 1902 296 3525 3.947232069591 13.852793052177 70 520 520 36400 18928000
29	52961 1673 624 3525 5.884780782412 13.852793052177 64 1 64 2080 89440
30	54634 144 296 613 3.947232069591 5.852793133282 6 1 6 21 91
35	54778 436 620 3350 5.884780782412 13.384780782412 16 540 540 8640 4665600
36	55214 436 620 3350 5.884780782412 13.384780782412 16 540 540 8640 4665600
37	55650 1466 293 3522 3.947232069591 13.852793052177 54 576 576 31104 17915904
38	57116 436 627 3357 5.884780782412 13.384780782412 16 576 576 9216 5308416
39	57552 436 623 3353 5.884780782412 13.384780782412 16 576 576 9216 5308416
40	57988 1466 293 3522 3.947232069591 13.852793052177 54 576 576 31104 17915904
41	59454 826 0 3364 0 13.385002782412 34 0 3 82 212
42	60280 3533 0 3521 0 13.852793052177 141 0 3 233 557
43	63813 1616 628 3364 5.884780782412 13.385002782412 64 0 2 64 96
44	65429 9 0 0 0 0 1 0 0 0 0
45	65438 9508 0 3521 0 13.852793052177 380 0 3 256 704
46	74946 1771 588 3500 5.852570675034 13.852570675034 65 512 512 33280 17039360
47	76717 464 577 3491 5.852570675034 13.852570675034 17 512 512 8704 4456448
48	77181 2258 588 3500 5.852570675034 13.852570675034 65 0 0.000222477437 0.010673165303 2.3732597255175e-06
50	79439 464 580 3492 5.852570675034 13.852570675034 17 520 520 8840 4596800
51	79903 1900 301 3498 3.947232226789 13.852570675034 70 520 520 36400 18928000
52	81803 1697 586 3498 5.852570675034 13.852570675034 65 1 65 2145 93665
53	83500 119 301 556 3.947232226789 5.72010903774 5 1 5 15 55
58	83619 464 582 3494 5.852570675034 13.852570675034 17 540 540 9180 4957200
59	84083 464 582 3494 5.852570675034 13.852570675034 17 540 540 9180 4957200
60	84547 1436 298 3464 3.947232226789 13.720109004905 53 576 576 30528 17584128
61	85983 464 589 3501 5.852570675034 13.852570675034 17 576 576 9792 5640192
62	86447 464 585 3497 5.852570675034 13.852570675034 17 576 576 9792 5640192
63	86911 1436 298 3464 3.947232226789 13.720109004905 53 576 576 30528 17584128
64	88347 878 0 3508 0 13.852792675034 36 0 3 87 225
65	89225 3528 0 3508 0 13.852792675034 141 0 3 230 548
66	92753 1720 590 3508 5.852570675034 13.852792675034 68 0 2 68 102
67	94473 9 0 0 0 0 1 0 0 0 0
68	94482 9654 0 3508 0 13.852792675034 386 0 3 272 748
69	104136 1768 543 3454 5.719886709309 13.719886709309 65 512 512 33280 17039360
70	105904 464 532 3445 5.719886709309 13.719886709309 17 512 512 8704 4456448
71	106368 2254 543 3454 5.719886709309 13.719886709309 65 0 0.000222773465 0.010682270754 2.3773122044393e-06
73	108622 464 535 3446 5.719886709309 13.719886709309 17 520 520 8840 4596800
74	109086 1900 306 3513 3.947232552239 13.852792743784 70 520 520 36400 18928000
75	110986 1721 541 3513 5.719886709309 13.852792743784 66 1 66 2211 98021
76	112707 96 306 512 3.947232552239 5.447232552239 4 1 4 10 30
81	112803 464 537 3448 5.719886709309 13.719886709309 17 540 540 9180 4957200
82	113267 464 537 3448 5.719886709309 13.719886709309 17 540 540 9180 4957200
83	113731 1436 303 3510 3.947232552239 13.852792743784 53 576 576 30528 17584128
84	115167 464 544 3455 5.719886709309 13.719886709309 17 576 576 9792 5640192
85	115631 464 540 3451 5.719886709309 13.719886709309 17 576 576 9792 5640192
86	116095 1436 303 3510 3.947232552239 13.852792743784 53 576 576 30528 17584128
87	117531 878 0 3462 0 13.720108709309 36 0 3 87 225
88	118409 3528 0 3509 0 13.852792743784 141 0 3 230 548
89	121937 1720 545 3462 5.719886709309 13.720108709309 68 0 2 68 102
90	123657 9 0 0 0 0 1 0 0 0 0
91	123666 9654 0 3509 0 13.852792743784 386 0 3 272 748
92	133320 272 67 3243 1 13 13 0.83365200764818 1 12.330146590185 11.731497866771
93	133592 153 67 3243 1 13 13 1 1 13 13
94	133745 153 67 3243 1 13 13 4 4 52 208
95	133898 153 67 3243 1 13 13 0 0 0 0
96	134051 271 68 3244 1 13 13 0.83314212874442 1 12.398470363289 11.856975425315
100	134322 271 69 3245 1 13 13 0.90210325047801 1 12.582919056724 12.195610719318
104	134593 286 70 3246 1 13 13 0.90350541746335 1 12.619502868069 12.262137843601
