version 2
run General-0-20161004-19:07:06-16667
attr configname General
attr datetime 20161004-19:07:06
attr experiment General
attr inifile omnetpp.ini
attr iterationvars ""
attr iterationvars2 $repetition=0
attr measurement ""
attr network Net80211test
attr processid 16667
attr repetition 0
attr replication #0
attr resultdir results
attr runnumber 0
attr seedset 0
param **.constraintAreaMaxX 600m
param **.constraintAreaMaxY 400m
param **.constraintAreaMaxZ 0m
param **.constraintAreaMinX 0m
param **.constraintAreaMinY 0m
param **.constraintAreaMinZ 0m
param **.host*.mobility.initFromDisplayString false
param **.host*.mobility.initialX "normal(300m, 50m)"
param **.host*.mobility.initialY "normal(200m, 50m)"
param **.host*.mobility.updateInterval 100ms
param **.host*.mobilityType "\"VirtualSpringMobility\""
param **.host[*].battery.flightHeight 1m
param **.host[*].battery.initialCapacity 55J
param **.host[*].battery.swapHeightFactor 0
param **.host[*].networkLayerType "\"IPv4ExtNetworkLayer\""
param **.host[*].udpType "\"UDPExt\""
param **.ip.forceBroadcast true
param **.udpApp[0].chargingStationNumber 1
param **.udpApp[0].checkRechargeTimer 1s
param **.udpApp[0].destAddresses "\"255.255.255.255\""
param **.udpApp[0].destPort 100
param **.udpApp[0].isCentralized true
param **.udpApp[0].localAddress "\"\""
param **.udpApp[0].localPort 100
param **.udpApp[0].messageLength 512B
param **.udpApp[0].receiveBroadcast true
param **.udpApp[0].schedulingType "\"ANALYTICAL\""
param **.udpApp[0].sendInterval 0.5s
param **.udpApp[0].startTime "truncnormal(5s, 1s)"
param **.wlan[*].bitrate 2Mbps
param **.wlan[*].mac.address "\"auto\""
param **.wlan[*].mac.cwMinBroadcast 31
param **.wlan[*].mac.cwMinData 7
param **.wlan[*].mac.maxQueueSize 14
param **.wlan[*].mac.retryLimit 7
param **.wlan[*].mac.rtsThresholdBytes 3000B
param **.wlan[*].macType "\"Ieee80211MacExt\""
param **.wlan[*].mgmt.frameCapacity 10
param **.wlan[*].mgmtType "\"Ieee80211MgmtAdhocExt\""
param **.wlan[*].radio.receiver.sensitivity -85dBm
param **.wlan[*].radio.receiver.snirThreshold 4dB
param **.wlan[*].radio.receiverType "\"Ieee80211ScalarReceiverExt\""
param **.wlan[*].radio.transmitter.power 100mW
param *.host[*].numUdpApps 1
param *.host[*].udpApp[*].typename "\"UDPBasicRecharge\""
param *.numHosts 4

vector 22  Net80211test.host[0].wlan[0].mac.ctn[0]  state:vector  ETV
attr interpolationmode  none
attr source  stateChanged
attr title  "contention state, vector"
vector 45  Net80211test.host[1].wlan[0].mac.ctn[0]  state:vector  ETV
attr interpolationmode  none
attr source  stateChanged
attr title  "contention state, vector"
vector 68  Net80211test.host[2].wlan[0].mac.ctn[0]  state:vector  ETV
attr interpolationmode  none
attr source  stateChanged
attr title  "contention state, vector"
vector 91  Net80211test.host[3].wlan[0].mac.ctn[0]  state:vector  ETV
attr interpolationmode  none
attr source  stateChanged
attr title  "contention state, vector"
vector 18  Net80211test.host[0].wlan[0].radio  radioMode:vector  ETV
attr interpolationmode  sample-hold
attr source  radioModeChanged
attr title  "Radio mode, vector"
vector 21  Net80211test.host[0].wlan[0].radio  radioChannel:vector  ETV
attr interpolationmode  sample-hold
attr source  radioChannelChanged
attr title  "Radio channel, vector"
vector 41  Net80211test.host[1].wlan[0].radio  radioMode:vector  ETV
attr interpolationmode  sample-hold
attr source  radioModeChanged
attr title  "Radio mode, vector"
vector 44  Net80211test.host[1].wlan[0].radio  radioChannel:vector  ETV
attr interpolationmode  sample-hold
attr source  radioChannelChanged
attr title  "Radio channel, vector"
vector 64  Net80211test.host[2].wlan[0].radio  radioMode:vector  ETV
attr interpolationmode  sample-hold
attr source  radioModeChanged
attr title  "Radio mode, vector"
vector 67  Net80211test.host[2].wlan[0].radio  radioChannel:vector  ETV
attr interpolationmode  sample-hold
attr source  radioChannelChanged
attr title  "Radio channel, vector"
vector 87  Net80211test.host[3].wlan[0].radio  radioMode:vector  ETV
attr interpolationmode  sample-hold
attr source  radioModeChanged
attr title  "Radio mode, vector"
vector 90  Net80211test.host[3].wlan[0].radio  radioChannel:vector  ETV
attr interpolationmode  sample-hold
attr source  radioChannelChanged
attr title  "Radio channel, vector"
vector 19  Net80211test.host[0].wlan[0].radio  receptionState:vector  ETV
attr interpolationmode  sample-hold
attr source  receptionStateChanged
attr title  "Radio reception state, vector"
vector 42  Net80211test.host[1].wlan[0].radio  receptionState:vector  ETV
attr interpolationmode  sample-hold
attr source  receptionStateChanged
attr title  "Radio reception state, vector"
vector 65  Net80211test.host[2].wlan[0].radio  receptionState:vector  ETV
attr interpolationmode  sample-hold
attr source  receptionStateChanged
attr title  "Radio reception state, vector"
vector 88  Net80211test.host[3].wlan[0].radio  receptionState:vector  ETV
attr interpolationmode  sample-hold
attr source  receptionStateChanged
attr title  "Radio reception state, vector"
vector 92  Net80211test.host[0].udpApp[0]  personalCoverage  ETV
vector 93  Net80211test.host[0].udpApp[0]  totalCoverage  ETV
vector 94  Net80211test.host[1].udpApp[0]  personalCoverage  ETV
vector 96  Net80211test.host[2].udpApp[0]  personalCoverage  ETV
vector 98  Net80211test.host[3].udpApp[0]  personalCoverage  ETV
vector 1  Net80211test.host[0].udpApp[0]  sentPk:vector(packetBytes)  ETV
attr interpolationmode  none
attr source  sentPk
attr title  "packets sent, vector(packetBytes)"
vector 4  Net80211test.host[0].udp  sentPk:vector(packetBytes)  ETV
attr interpolationmode  none
attr source  sentPk
attr title  "packets sent, vector(packetBytes)"
vector 12  Net80211test.host[0].lo0.lo  rcvdPkFromHL:vector(packetBytes)  ETV
attr interpolationmode  none
attr source  packetReceivedFromUpper
attr title  "packets received from higher layer, vector(packetBytes)"
vector 13  Net80211test.host[0].lo0.lo  passedUpPk:vector(packetBytes)  ETV
attr interpolationmode  none
attr source  packetSentToUpper
attr title  "packets passed to higher layer, vector(packetBytes)"
vector 16  Net80211test.host[0].wlan[0].mac  rcvdPkFromHL:vector(packetBytes)  ETV
attr interpolationmode  none
attr source  packetReceivedFromUpper
attr title  "packets received from higher layer, vector(packetBytes)"
vector 5  Net80211test.host[0].udp  rcvdPk:vector(packetBytes)  ETV
attr interpolationmode  none
attr source  rcvdPk
attr title  "packets received, vector(packetBytes)"
vector 6  Net80211test.host[0].udp  passedUpPk:vector(count)  ETV
attr interpolationmode  none
attr title  "packets passed up, vector(count)"
vector 0  Net80211test.host[0].udpApp[0]  rcvdPk:vector(packetBytes)  ETV
attr interpolationmode  none
attr source  rcvdPk
attr title  "packets received, vector(packetBytes)"
vector 2  Net80211test.host[0].udpApp[0]  rcvdPkLifetime:vector  ETV
attr interpolationmode  none
attr source  messageAge(rcvdPk)
attr title  "received packet lifetime, vector"
attr unit  s
vector 15  Net80211test.host[0].wlan[0].mac  sentDownPk:vector(packetBytes)  ETV
attr interpolationmode  none
attr source  packetSentToLower
attr title  "packets sent to lower layer, vector(packetBytes)"
vector 20  Net80211test.host[0].wlan[0].radio  transmissionState:vector  ETV
attr interpolationmode  sample-hold
attr source  transmissionStateChanged
attr title  "Radio transmission state, vector"
vector 40  Net80211test.host[1].wlan[0].mac  rcvdPkFromLL:vector(packetBytes)  ETV
attr interpolationmode  none
attr source  packetReceivedFromLower
attr title  "packets received from lower layer, vector(packetBytes)"
vector 37  Net80211test.host[1].wlan[0].mac  passedUpPk:vector(packetBytes)  ETV
attr interpolationmode  none
attr source  packetSentToUpper
attr title  "packets passed to higher layer, vector(packetBytes)"
vector 63  Net80211test.host[2].wlan[0].mac  rcvdPkFromLL:vector(packetBytes)  ETV
attr interpolationmode  none
attr source  packetReceivedFromLower
attr title  "packets received from lower layer, vector(packetBytes)"
vector 60  Net80211test.host[2].wlan[0].mac  passedUpPk:vector(packetBytes)  ETV
attr interpolationmode  none
attr source  packetSentToUpper
attr title  "packets passed to higher layer, vector(packetBytes)"
vector 86  Net80211test.host[3].wlan[0].mac  rcvdPkFromLL:vector(packetBytes)  ETV
attr interpolationmode  none
attr source  packetReceivedFromLower
attr title  "packets received from lower layer, vector(packetBytes)"
vector 83  Net80211test.host[3].wlan[0].mac  passedUpPk:vector(packetBytes)  ETV
attr interpolationmode  none
attr source  packetSentToUpper
attr title  "packets passed to higher layer, vector(packetBytes)"
vector 28  Net80211test.host[1].udp  rcvdPk:vector(packetBytes)  ETV
attr interpolationmode  none
attr source  rcvdPk
attr title  "packets received, vector(packetBytes)"
vector 30  Net80211test.host[1].udp  droppedPkWrongPort:vector(count)  ETV
attr interpolationmode  none
attr title  "packets dropped (wrong port), vector(count)"
vector 51  Net80211test.host[2].udp  rcvdPk:vector(packetBytes)  ETV
attr interpolationmode  none
attr source  rcvdPk
attr title  "packets received, vector(packetBytes)"
vector 53  Net80211test.host[2].udp  droppedPkWrongPort:vector(count)  ETV
attr interpolationmode  none
attr title  "packets dropped (wrong port), vector(count)"
vector 74  Net80211test.host[3].udp  rcvdPk:vector(packetBytes)  ETV
attr interpolationmode  none
attr source  rcvdPk
attr title  "packets received, vector(packetBytes)"
vector 76  Net80211test.host[3].udp  droppedPkWrongPort:vector(count)  ETV
attr interpolationmode  none
attr title  "packets dropped (wrong port), vector(count)"
vector 70  Net80211test.host[3].udpApp[0]  sentPk:vector(packetBytes)  ETV
attr interpolationmode  none
attr source  sentPk
attr title  "packets sent, vector(packetBytes)"
vector 73  Net80211test.host[3].udp  sentPk:vector(packetBytes)  ETV
attr interpolationmode  none
attr source  sentPk
attr title  "packets sent, vector(packetBytes)"
vector 81  Net80211test.host[3].lo0.lo  rcvdPkFromHL:vector(packetBytes)  ETV
attr interpolationmode  none
attr source  packetReceivedFromUpper
attr title  "packets received from higher layer, vector(packetBytes)"
vector 82  Net80211test.host[3].lo0.lo  passedUpPk:vector(packetBytes)  ETV
attr interpolationmode  none
attr source  packetSentToUpper
attr title  "packets passed to higher layer, vector(packetBytes)"
vector 85  Net80211test.host[3].wlan[0].mac  rcvdPkFromHL:vector(packetBytes)  ETV
attr interpolationmode  none
attr source  packetReceivedFromUpper
attr title  "packets received from higher layer, vector(packetBytes)"
vector 75  Net80211test.host[3].udp  passedUpPk:vector(count)  ETV
attr interpolationmode  none
attr title  "packets passed up, vector(count)"
vector 69  Net80211test.host[3].udpApp[0]  rcvdPk:vector(packetBytes)  ETV
attr interpolationmode  none
attr source  rcvdPk
attr title  "packets received, vector(packetBytes)"
vector 71  Net80211test.host[3].udpApp[0]  rcvdPkLifetime:vector  ETV
attr interpolationmode  none
attr source  messageAge(rcvdPk)
attr title  "received packet lifetime, vector"
attr unit  s
vector 84  Net80211test.host[3].wlan[0].mac  sentDownPk:vector(packetBytes)  ETV
attr interpolationmode  none
attr source  packetSentToLower
attr title  "packets sent to lower layer, vector(packetBytes)"
vector 89  Net80211test.host[3].wlan[0].radio  transmissionState:vector  ETV
attr interpolationmode  sample-hold
attr source  transmissionStateChanged
attr title  "Radio transmission state, vector"
vector 17  Net80211test.host[0].wlan[0].mac  rcvdPkFromLL:vector(packetBytes)  ETV
attr interpolationmode  none
attr source  packetReceivedFromLower
attr title  "packets received from lower layer, vector(packetBytes)"
vector 14  Net80211test.host[0].wlan[0].mac  passedUpPk:vector(packetBytes)  ETV
attr interpolationmode  none
attr source  packetSentToUpper
attr title  "packets passed to higher layer, vector(packetBytes)"
vector 24  Net80211test.host[1].udpApp[0]  sentPk:vector(packetBytes)  ETV
attr interpolationmode  none
attr source  sentPk
attr title  "packets sent, vector(packetBytes)"
vector 27  Net80211test.host[1].udp  sentPk:vector(packetBytes)  ETV
attr interpolationmode  none
attr source  sentPk
attr title  "packets sent, vector(packetBytes)"
vector 35  Net80211test.host[1].lo0.lo  rcvdPkFromHL:vector(packetBytes)  ETV
attr interpolationmode  none
attr source  packetReceivedFromUpper
attr title  "packets received from higher layer, vector(packetBytes)"
vector 36  Net80211test.host[1].lo0.lo  passedUpPk:vector(packetBytes)  ETV
attr interpolationmode  none
attr source  packetSentToUpper
attr title  "packets passed to higher layer, vector(packetBytes)"
vector 39  Net80211test.host[1].wlan[0].mac  rcvdPkFromHL:vector(packetBytes)  ETV
attr interpolationmode  none
attr source  packetReceivedFromUpper
attr title  "packets received from higher layer, vector(packetBytes)"
vector 29  Net80211test.host[1].udp  passedUpPk:vector(count)  ETV
attr interpolationmode  none
attr title  "packets passed up, vector(count)"
vector 23  Net80211test.host[1].udpApp[0]  rcvdPk:vector(packetBytes)  ETV
attr interpolationmode  none
attr source  rcvdPk
attr title  "packets received, vector(packetBytes)"
vector 25  Net80211test.host[1].udpApp[0]  rcvdPkLifetime:vector  ETV
attr interpolationmode  none
attr source  messageAge(rcvdPk)
attr title  "received packet lifetime, vector"
attr unit  s
vector 38  Net80211test.host[1].wlan[0].mac  sentDownPk:vector(packetBytes)  ETV
attr interpolationmode  none
attr source  packetSentToLower
attr title  "packets sent to lower layer, vector(packetBytes)"
vector 43  Net80211test.host[1].wlan[0].radio  transmissionState:vector  ETV
attr interpolationmode  sample-hold
attr source  transmissionStateChanged
attr title  "Radio transmission state, vector"
vector 52  Net80211test.host[2].udp  passedUpPk:vector(count)  ETV
attr interpolationmode  none
attr title  "packets passed up, vector(count)"
vector 46  Net80211test.host[2].udpApp[0]  rcvdPk:vector(packetBytes)  ETV
attr interpolationmode  none
attr source  rcvdPk
attr title  "packets received, vector(packetBytes)"
vector 48  Net80211test.host[2].udpApp[0]  rcvdPkLifetime:vector  ETV
attr interpolationmode  none
attr source  messageAge(rcvdPk)
attr title  "received packet lifetime, vector"
attr unit  s
vector 47  Net80211test.host[2].udpApp[0]  sentPk:vector(packetBytes)  ETV
attr interpolationmode  none
attr source  sentPk
attr title  "packets sent, vector(packetBytes)"
vector 50  Net80211test.host[2].udp  sentPk:vector(packetBytes)  ETV
attr interpolationmode  none
attr source  sentPk
attr title  "packets sent, vector(packetBytes)"
vector 58  Net80211test.host[2].lo0.lo  rcvdPkFromHL:vector(packetBytes)  ETV
attr interpolationmode  none
attr source  packetReceivedFromUpper
attr title  "packets received from higher layer, vector(packetBytes)"
vector 59  Net80211test.host[2].lo0.lo  passedUpPk:vector(packetBytes)  ETV
attr interpolationmode  none
attr source  packetSentToUpper
attr title  "packets passed to higher layer, vector(packetBytes)"
vector 62  Net80211test.host[2].wlan[0].mac  rcvdPkFromHL:vector(packetBytes)  ETV
attr interpolationmode  none
attr source  packetReceivedFromUpper
attr title  "packets received from higher layer, vector(packetBytes)"
vector 61  Net80211test.host[2].wlan[0].mac  sentDownPk:vector(packetBytes)  ETV
attr interpolationmode  none
attr source  packetSentToLower
attr title  "packets sent to lower layer, vector(packetBytes)"
vector 66  Net80211test.host[2].wlan[0].radio  transmissionState:vector  ETV
attr interpolationmode  sample-hold
attr source  transmissionStateChanged
attr title  "Radio transmission state, vector"
0	271	3.947009828233	512
0	342	4.447009828233	512
0	404	4.947009828233	512
0	475	5.447009828233	512
0	551	5.720108709309	512
0	601	5.885002786212	512
0	616	5.947009828233	512
0	704	6.220108775948	512
0	746	6.385002963636	512
0	765	6.447009828233	512
0	844	6.720108955999	512
0	890	6.885003281265	512
0	905	6.947009828233	512
0	993	7.220109089279	512
0	1035	7.385003519329	512
0	1054	7.447009828233	512
0	1133	7.720109144434	512
0	1179	7.885003634363	512
0	1194	7.947009828233	512
0	1276	8.220109084493	512
0	1324	8.385003651111	512
0	1343	8.447009828233	512
0	1410	8.720108959007	512
0	1468	8.885003625714	512
0	1483	8.947009828233	512
0	1559	9.220108868365	512
0	1612	9.35279311947	512
0	1632	9.447009828233	512
0	1699	9.720108884257	512
0	1756	9.852793143388	512
0	1772	9.947009828233	512
0	1860	10.220108992572	512
0	1901	10.352793200261	512
0	1921	10.447009828233	512
0	2000	10.720109095146	512
0	2045	10.852793256839	512
0	2061	10.947009828233	512
0	2149	11.220109101664	512
0	2190	11.352793285698	512
0	2210	11.447009828233	512
0	2283	11.720109014086	512
0	2334	11.852793277227	512
0	2350	11.947009828233	512
0	2426	12.220108920563	512
0	2479	12.35279326032	512
0	2499	12.447009828233	512
0	2566	12.720108893618	512
0	2623	12.852793266991	512
0	2639	12.947009828233	512
0	4165	18.220109047351	512
0	4207	18.35279293738	512
0	4233	18.447009828233	512
0	4300	18.720109061031	512
0	4351	18.852792954016	512
0	4373	18.947009828233	512
0	4449	19.220109075942	512
0	4497	19.385002840445	512
0	4522	19.447009828233	512
0	4589	19.720109052265	512
0	4641	19.885002944587	512
0	4662	19.947009828233	512
0	4755	20.352792936766	512
0	4792	20.385003140351	512
0	4811	20.447009828233	512
0	4899	20.852792967622	512
0	4936	20.885003309668	512
0	4951	20.947009828233	512
1	260	3.947009828233	512
1	333	4.447009828233	512
1	395	4.947009828233	512
1	466	5.447009828233	512
1	607	5.947009828233	512
1	756	6.447009828233	512
1	896	6.947009828233	512
1	1045	7.447009828233	512
1	1185	7.947009828233	512
1	1334	8.447009828233	512
1	1474	8.947009828233	512
1	1623	9.447009828233	512
1	1763	9.947009828233	512
1	1912	10.447009828233	512
1	2052	10.947009828233	512
1	2201	11.447009828233	512
1	2341	11.947009828233	512
1	2490	12.447009828233	512
1	2630	12.947009828233	512
1	4224	18.447009828233	512
1	4364	18.947009828233	512
1	4513	19.447009828233	512
1	4653	19.947009828233	512
1	4802	20.447009828233	512
1	4942	20.947009828233	512
2	271	3.947009828233	0
2	342	4.447009828233	0
2	404	4.947009828233	0
2	475	5.447009828233	0
2	551	5.720108709309	0.000222
2	601	5.885002786212	0.0002220038
2	616	5.947009828233	0
2	704	6.220108775948	0.000222066639
2	746	6.385002963636	0.000222181224
2	765	6.447009828233	0
2	844	6.720108955999	0.00022224669
2	890	6.885003281265	0.000222498853
2	905	6.947009828233	0
2	993	7.220109089279	0.00022237997
2	1035	7.385003519329	0.000222736917
2	1054	7.447009828233	0
2	1133	7.720109144434	0.000222435125
2	1179	7.885003634363	0.000222851951
2	1194	7.947009828233	0
2	1276	8.220109084493	0.000222375184
2	1324	8.385003651111	0.000222868699
2	1343	8.447009828233	0
2	1410	8.720108959007	0.000222249698
2	1468	8.885003625714	0.000222843302
2	1483	8.947009828233	0
2	1559	9.220108868365	0.000222159056
2	1612	9.35279311947	0.000222444436
2	1632	9.447009828233	0
2	1699	9.720108884257	0.000222174948
2	1756	9.852793143388	0.000222468354
2	1772	9.947009828233	0
2	1860	10.220108992572	0.000222283263
2	1901	10.352793200261	0.000222525227
2	1921	10.447009828233	0
2	2000	10.720109095146	0.000222385837
2	2045	10.852793256839	0.000222581805
2	2061	10.947009828233	0
2	2149	11.220109101664	0.000222392355
2	2190	11.352793285698	0.000222610664
2	2210	11.447009828233	0
2	2283	11.720109014086	0.000222304777
2	2334	11.852793277227	0.000222602193
2	2350	11.947009828233	0
2	2426	12.220108920563	0.000222211254
2	2479	12.35279326032	0.000222585286
2	2499	12.447009828233	0
2	2566	12.720108893618	0.000222184309
2	2623	12.852793266991	0.000222591957
2	2639	12.947009828233	0
2	4165	18.220109047351	0.000222338042
2	4207	18.35279293738	0.000222262346
2	4233	18.447009828233	0
2	4300	18.720109061031	0.000222351722
2	4351	18.852792954016	0.000222278982
2	4373	18.947009828233	0
2	4449	19.220109075942	0.000222366633
2	4497	19.385002840445	0.000222058033
2	4522	19.447009828233	0
2	4589	19.720109052265	0.000222342956
2	4641	19.885002944587	0.000222162175
2	4662	19.947009828233	0
2	4755	20.352792936766	0.000222261732
2	4792	20.385003140351	0.000222357939
2	4811	20.447009828233	0
2	4899	20.852792967622	0.000222292588
2	4936	20.885003309668	0.000222527256
2	4951	20.947009828233	0
4	263	3.947009828233	520
4	334	4.447009828233	520
4	396	4.947009828233	520
4	467	5.447009828233	520
4	608	5.947009828233	520
4	757	6.447009828233	520
4	897	6.947009828233	520
4	1046	7.447009828233	520
4	1186	7.947009828233	520
4	1335	8.447009828233	520
4	1475	8.947009828233	520
4	1624	9.447009828233	520
4	1764	9.947009828233	520
4	1913	10.447009828233	520
4	2053	10.947009828233	520
4	2202	11.447009828233	520
4	2342	11.947009828233	520
4	2491	12.447009828233	520
4	2631	12.947009828233	520
4	4225	18.447009828233	520
4	4365	18.947009828233	520
4	4514	19.447009828233	520
4	4654	19.947009828233	520
4	4803	20.447009828233	520
4	4943	20.947009828233	520
5	269	3.947009828233	520
5	340	4.447009828233	520
5	402	4.947009828233	520
5	473	5.447009828233	520
5	548	5.720108709309	520
5	600	5.885002786212	520
5	614	5.947009828233	520
5	703	6.220108775948	520
5	745	6.385002963636	520
5	763	6.447009828233	520
5	843	6.720108955999	520
5	889	6.885003281265	520
5	903	6.947009828233	520
5	992	7.220109089279	520
5	1034	7.385003519329	520
5	1052	7.447009828233	520
5	1132	7.720109144434	520
5	1178	7.885003634363	520
5	1192	7.947009828233	520
5	1275	8.220109084493	520
5	1323	8.385003651111	520
5	1341	8.447009828233	520
5	1409	8.720108959007	520
5	1467	8.885003625714	520
5	1481	8.947009828233	520
5	1558	9.220108868365	520
5	1611	9.35279311947	520
5	1630	9.447009828233	520
5	1698	9.720108884257	520
5	1755	9.852793143388	520
5	1770	9.947009828233	520
5	1859	10.220108992572	520
5	1900	10.352793200261	520
5	1919	10.447009828233	520
5	1999	10.720109095146	520
5	2044	10.852793256839	520
5	2059	10.947009828233	520
5	2148	11.220109101664	520
5	2189	11.352793285698	520
5	2208	11.447009828233	520
5	2282	11.720109014086	520
5	2333	11.852793277227	520
5	2348	11.947009828233	520
5	2425	12.220108920563	520
5	2478	12.35279326032	520
5	2497	12.447009828233	520
5	2565	12.720108893618	520
5	2622	12.852793266991	520
5	2637	12.947009828233	520
5	2718	13.220109060141	520
5	2755	13.352792773702	520
5	2792	13.385002783303	520
5	2860	13.720109031609	520
5	2899	13.852792805295	520
5	2936	13.885002840933	520
5	3009	14.220109000331	520
5	3044	14.352792866533	520
5	3081	14.385002909943	520
5	3149	14.720109003635	520
5	3188	14.852792903831	520
5	3225	14.885002920842	520
5	3298	15.220109051811	520
5	3333	15.352792925609	520
5	3370	15.385002901283	520
5	3438	15.7201091118	520
5	3477	15.852792937482	520
5	3514	15.885002892772	520
5	3587	16.220109143141	520
5	3622	16.352792943033	520
5	3659	16.38500289232	520
5	3727	16.720109129616	520
5	3766	16.85279294455	520
5	3803	16.885002899651	520
5	3876	17.220109090088	520
5	3911	17.352792943491	520
5	3948	17.385002925238	520
5	4016	17.720109055874	520
5	4055	17.852792940789	520
5	4092	17.885002938598	520
5	4163	18.220109047351	520
5	4206	18.35279293738	520
5	4231	18.447009828233	520
5	4299	18.720109061031	520
5	4350	18.852792954016	520
5	4371	18.947009828233	520
5	4448	19.220109075942	520
5	4496	19.385002840445	520
5	4520	19.447009828233	520
5	4588	19.720109052265	520
5	4640	19.885002944587	520
5	4660	19.947009828233	520
5	4754	20.352792936766	520
5	4791	20.385003140351	520
5	4809	20.447009828233	520
5	4898	20.852792967622	520
5	4935	20.885003309668	520
5	4949	20.947009828233	520
6	269	3.947009828233	1
6	340	4.447009828233	2
6	402	4.947009828233	3
6	473	5.447009828233	4
6	548	5.720108709309	5
6	600	5.885002786212	6
6	614	5.947009828233	7
6	703	6.220108775948	8
6	745	6.385002963636	9
6	763	6.447009828233	10
6	843	6.720108955999	11
6	889	6.885003281265	12
6	903	6.947009828233	13
6	992	7.220109089279	14
6	1034	7.385003519329	15
6	1052	7.447009828233	16
6	1132	7.720109144434	17
6	1178	7.885003634363	18
6	1192	7.947009828233	19
6	1275	8.220109084493	20
6	1323	8.385003651111	21
6	1341	8.447009828233	22
6	1409	8.720108959007	23
6	1467	8.885003625714	24
6	1481	8.947009828233	25
6	1558	9.220108868365	26
6	1611	9.35279311947	27
6	1630	9.447009828233	28
6	1698	9.720108884257	29
6	1755	9.852793143388	30
6	1770	9.947009828233	31
6	1859	10.220108992572	32
6	1900	10.352793200261	33
6	1919	10.447009828233	34
6	1999	10.720109095146	35
6	2044	10.852793256839	36
6	2059	10.947009828233	37
6	2148	11.220109101664	38
6	2189	11.352793285698	39
6	2208	11.447009828233	40
6	2282	11.720109014086	41
6	2333	11.852793277227	42
6	2348	11.947009828233	43
6	2425	12.220108920563	44
6	2478	12.35279326032	45
6	2497	12.447009828233	46
6	2565	12.720108893618	47
6	2622	12.852793266991	48
6	2637	12.947009828233	49
6	2718	13.220109060141	50
6	2755	13.352792773702	51
6	2792	13.385002783303	52
6	2860	13.720109031609	53
6	2899	13.852792805295	54
6	2936	13.885002840933	55
6	3009	14.220109000331	56
6	3044	14.352792866533	57
6	3081	14.385002909943	58
6	3149	14.720109003635	59
6	3188	14.852792903831	60
6	3225	14.885002920842	61
6	3298	15.220109051811	62
6	3333	15.352792925609	63
6	3370	15.385002901283	64
6	3438	15.7201091118	65
6	3477	15.852792937482	66
6	3514	15.885002892772	67
6	3587	16.220109143141	68
6	3622	16.352792943033	69
6	3659	16.38500289232	70
6	3727	16.720109129616	71
6	3766	16.85279294455	72
6	3803	16.885002899651	73
6	3876	17.220109090088	74
6	3911	17.352792943491	75
6	3948	17.385002925238	76
6	4016	17.720109055874	77
6	4055	17.852792940789	78
6	4092	17.885002938598	79
6	4163	18.220109047351	80
6	4206	18.35279293738	81
6	4231	18.447009828233	82
6	4299	18.720109061031	83
6	4350	18.852792954016	84
6	4371	18.947009828233	85
6	4448	19.220109075942	86
6	4496	19.385002840445	87
6	4520	19.447009828233	88
6	4588	19.720109052265	89
6	4640	19.885002944587	90
6	4660	19.947009828233	91
6	4754	20.352792936766	92
6	4791	20.385003140351	93
6	4809	20.447009828233	94
6	4898	20.852792967622	95
6	4935	20.885003309668	96
6	4949	20.947009828233	97
12	265	3.947009828233	540
12	336	4.447009828233	540
12	398	4.947009828233	540
12	469	5.447009828233	540
12	610	5.947009828233	540
12	759	6.447009828233	540
12	899	6.947009828233	540
12	1048	7.447009828233	540
12	1188	7.947009828233	540
12	1337	8.447009828233	540
12	1477	8.947009828233	540
12	1626	9.447009828233	540
12	1766	9.947009828233	540
12	1915	10.447009828233	540
12	2055	10.947009828233	540
12	2204	11.447009828233	540
12	2344	11.947009828233	540
12	2493	12.447009828233	540
12	2633	12.947009828233	540
12	4227	18.447009828233	540
12	4367	18.947009828233	540
12	4516	19.447009828233	540
12	4656	19.947009828233	540
12	4805	20.447009828233	540
12	4945	20.947009828233	540
13	265	3.947009828233	540
13	336	4.447009828233	540
13	398	4.947009828233	540
13	469	5.447009828233	540
13	610	5.947009828233	540
13	759	6.447009828233	540
13	899	6.947009828233	540
13	1048	7.447009828233	540
13	1188	7.947009828233	540
13	1337	8.447009828233	540
13	1477	8.947009828233	540
13	1626	9.447009828233	540
13	1766	9.947009828233	540
13	1915	10.447009828233	540
13	2055	10.947009828233	540
13	2204	11.447009828233	540
13	2344	11.947009828233	540
13	2493	12.447009828233	540
13	2633	12.947009828233	540
13	4227	18.447009828233	540
13	4367	18.947009828233	540
13	4516	19.447009828233	540
13	4656	19.947009828233	540
13	4805	20.447009828233	540
13	4945	20.947009828233	540
14	539	5.720108709309	576
14	597	5.885002786212	576
14	700	6.220108775948	576
14	742	6.385002963636	576
14	840	6.720108955999	576
14	886	6.885003281265	576
14	989	7.220109089279	576
14	1031	7.385003519329	576
14	1129	7.720109144434	576
14	1175	7.885003634363	576
14	1272	8.220109084493	576
14	1320	8.385003651111	576
14	1406	8.720108959007	576
14	1464	8.885003625714	576
14	1555	9.220108868365	576
14	1608	9.35279311947	576
14	1695	9.720108884257	576
14	1752	9.852793143388	576
14	1856	10.220108992572	576
14	1897	10.352793200261	576
14	1996	10.720109095146	576
14	2041	10.852793256839	576
14	2145	11.220109101664	576
14	2186	11.352793285698	576
14	2279	11.720109014086	576
14	2330	11.852793277227	576
14	2422	12.220108920563	576
14	2475	12.35279326032	576
14	2562	12.720108893618	576
14	2619	12.852793266991	576
14	2712	13.220109060141	576
14	2752	13.352792773702	576
14	2789	13.385002783303	576
14	2857	13.720109031609	576
14	2896	13.852792805295	576
14	2933	13.885002840933	576
14	3006	14.220109000331	576
14	3041	14.352792866533	576
14	3078	14.385002909943	576
14	3146	14.720109003635	576
14	3185	14.852792903831	576
14	3222	14.885002920842	576
14	3295	15.220109051811	576
14	3330	15.352792925609	576
14	3367	15.385002901283	576
14	3435	15.7201091118	576
14	3474	15.852792937482	576
14	3511	15.885002892772	576
14	3584	16.220109143141	576
14	3619	16.352792943033	576
14	3656	16.38500289232	576
14	3724	16.720109129616	576
14	3763	16.85279294455	576
14	3800	16.885002899651	576
14	3873	17.220109090088	576
14	3908	17.352792943491	576
14	3945	17.385002925238	576
14	4013	17.720109055874	576
14	4052	17.852792940789	576
14	4089	17.885002938598	576
14	4157	18.220109047351	576
14	4203	18.35279293738	576
14	4296	18.720109061031	576
14	4347	18.852792954016	576
14	4445	19.220109075942	576
14	4493	19.385002840445	576
14	4585	19.720109052265	576
14	4637	19.885002944587	576
14	4751	20.352792936766	576
14	4788	20.385003140351	576
14	4895	20.852792967622	576
14	4932	20.885003309668	576
15	272	3.947009828233	576
15	343	4.447009828233	576
15	405	4.947009828233	576
15	476	5.447009828233	576
15	617	5.947009828233	576
15	766	6.447009828233	576
15	906	6.947009828233	576
15	1055	7.447009828233	576
15	1195	7.947009828233	576
15	1344	8.447009828233	576
15	1484	8.947009828233	576
15	1633	9.447009828233	576
15	1773	9.947009828233	576
15	1922	10.447009828233	576
15	2062	10.947009828233	576
15	2211	11.447009828233	576
15	2351	11.947009828233	576
15	2500	12.447009828233	576
15	2640	12.947009828233	576
15	4234	18.447009828233	576
15	4374	18.947009828233	576
15	4523	19.447009828233	576
15	4663	19.947009828233	576
15	4812	20.447009828233	576
15	4952	20.947009828233	576
16	268	3.947009828233	576
16	339	4.447009828233	576
16	401	4.947009828233	576
16	472	5.447009828233	576
16	613	5.947009828233	576
16	762	6.447009828233	576
16	902	6.947009828233	576
16	1051	7.447009828233	576
16	1191	7.947009828233	576
16	1340	8.447009828233	576
16	1480	8.947009828233	576
16	1629	9.447009828233	576
16	1769	9.947009828233	576
16	1918	10.447009828233	576
16	2058	10.947009828233	576
16	2207	11.447009828233	576
16	2347	11.947009828233	576
16	2496	12.447009828233	576
16	2636	12.947009828233	576
16	4230	18.447009828233	576
16	4370	18.947009828233	576
16	4519	19.447009828233	576
16	4659	19.947009828233	576
16	4808	20.447009828233	576
16	4948	20.947009828233	576
17	539	5.720108709309	576
17	597	5.885002786212	576
17	700	6.220108775948	576
17	742	6.385002963636	576
17	840	6.720108955999	576
17	886	6.885003281265	576
17	989	7.220109089279	576
17	1031	7.385003519329	576
17	1129	7.720109144434	576
17	1175	7.885003634363	576
17	1272	8.220109084493	576
17	1320	8.385003651111	576
17	1406	8.720108959007	576
17	1464	8.885003625714	576
17	1555	9.220108868365	576
17	1608	9.35279311947	576
17	1695	9.720108884257	576
17	1752	9.852793143388	576
17	1856	10.220108992572	576
17	1897	10.352793200261	576
17	1996	10.720109095146	576
17	2041	10.852793256839	576
17	2145	11.220109101664	576
17	2186	11.352793285698	576
17	2279	11.720109014086	576
17	2330	11.852793277227	576
17	2422	12.220108920563	576
17	2475	12.35279326032	576
17	2562	12.720108893618	576
17	2619	12.852793266991	576
17	2712	13.220109060141	576
17	2752	13.352792773702	576
17	2789	13.385002783303	576
17	2857	13.720109031609	576
17	2896	13.852792805295	576
17	2933	13.885002840933	576
17	3006	14.220109000331	576
17	3041	14.352792866533	576
17	3078	14.385002909943	576
17	3146	14.720109003635	576
17	3185	14.852792903831	576
17	3222	14.885002920842	576
17	3295	15.220109051811	576
17	3330	15.352792925609	576
17	3367	15.385002901283	576
17	3435	15.7201091118	576
17	3474	15.852792937482	576
17	3511	15.885002892772	576
17	3584	16.220109143141	576
17	3619	16.352792943033	576
17	3656	16.38500289232	576
17	3724	16.720109129616	576
17	3763	16.85279294455	576
17	3800	16.885002899651	576
17	3873	17.220109090088	576
17	3908	17.352792943491	576
17	3945	17.385002925238	576
17	4013	17.720109055874	576
17	4052	17.852792940789	576
17	4089	17.885002938598	576
17	4157	18.220109047351	576
17	4203	18.35279293738	576
17	4296	18.720109061031	576
17	4347	18.852792954016	576
17	4445	19.220109075942	576
17	4493	19.385002840445	576
17	4585	19.720109052265	576
17	4637	19.885002944587	576
17	4751	20.352792936766	576
17	4788	20.385003140351	576
17	4895	20.852792967622	576
17	4932	20.885003309668	576
18	0	0	0
18	0	0	2
18	273	3.947009828233	3
18	282	3.947231828233	2
18	344	4.447009828233	3
18	353	4.447231828233	2
18	406	4.947009828233	3
18	415	4.947231828233	2
18	477	5.447009828233	3
18	486	5.447231828233	2
18	618	5.947009828233	3
18	624	5.947231828233	2
18	767	6.447009828233	3
18	773	6.447231828233	2
18	907	6.947009828233	3
18	913	6.947231828233	2
18	1056	7.447009828233	3
18	1062	7.447231828233	2
18	1196	7.947009828233	3
18	1202	7.947231828233	2
18	1345	8.447009828233	3
18	1351	8.447231828233	2
18	1485	8.947009828233	3
18	1491	8.947231828233	2
18	1634	9.447009828233	3
18	1640	9.447231828233	2
18	1774	9.947009828233	3
18	1780	9.947231828233	2
18	1923	10.447009828233	3
18	1929	10.447231828233	2
18	2063	10.947009828233	3
18	2069	10.947231828233	2
18	2212	11.447009828233	3
18	2218	11.447231828233	2
18	2352	11.947009828233	3
18	2358	11.947231828233	2
18	2501	12.447009828233	3
18	2507	12.447231828233	2
18	2641	12.947009828233	3
18	2647	12.947231828233	2
18	4235	18.447009828233	3
18	4241	18.447231828233	2
18	4375	18.947009828233	3
18	4381	18.947231828233	2
18	4524	19.447009828233	3
18	4530	19.447231828233	2
18	4664	19.947009828233	3
18	4670	19.947231828233	2
18	4813	20.447009828233	3
18	4819	20.447231828233	2
18	4953	20.947009828233	3
18	4959	20.947231828233	2
19	0	0	1
19	273	3.947009828233	0
19	282	3.947231828233	1
19	344	4.447009828233	0
19	353	4.447231828233	1
19	406	4.947009828233	0
19	415	4.947231828233	1
19	477	5.447009828233	0
19	486	5.447231828233	1
19	531	5.719886709309	3
19	535	5.720108709309	1
19	581	5.884780786212	3
19	596	5.885002786212	1
19	618	5.947009828233	0
19	624	5.947231828233	1
19	684	6.219886775948	3
19	699	6.220108775948	1
19	726	6.384780963636	3
19	741	6.385002963636	1
19	767	6.447009828233	0
19	773	6.447231828233	1
19	824	6.719886955999	3
19	839	6.720108955999	1
19	870	6.884781281265	3
19	885	6.885003281265	1
19	907	6.947009828233	0
19	913	6.947231828233	1
19	973	7.219887089279	3
19	988	7.220109089279	1
19	1015	7.384781519329	3
19	1030	7.385003519329	1
19	1056	7.447009828233	0
19	1062	7.447231828233	1
19	1113	7.719887144434	3
19	1128	7.720109144434	1
19	1159	7.884781634363	3
19	1174	7.885003634363	1
19	1196	7.947009828233	0
19	1202	7.947231828233	1
19	1261	8.219887084493	3
19	1271	8.220109084493	1
19	1304	8.384781651111	3
19	1319	8.385003651111	1
19	1345	8.447009828233	0
19	1351	8.447231828233	1
19	1400	8.719886959007	3
19	1405	8.720108959007	1
19	1448	8.884781625714	3
19	1463	8.885003625714	1
19	1485	8.947009828233	0
19	1491	8.947231828233	1
19	1549	9.219886868365	3
19	1554	9.220108868365	1
19	1592	9.35257111947	3
19	1607	9.35279311947	1
19	1634	9.447009828233	0
19	1640	9.447231828233	1
19	1689	9.719886884257	3
19	1694	9.720108884257	1
19	1736	9.852571143388	3
19	1751	9.852793143388	1
19	1774	9.947009828233	0
19	1780	9.947231828233	1
19	1840	10.219886992572	3
19	1855	10.220108992572	1
19	1881	10.352571200261	3
19	1896	10.352793200261	1
19	1923	10.447009828233	0
19	1929	10.447231828233	1
19	1980	10.719887095146	3
19	1995	10.720109095146	1
19	2025	10.852571256839	3
19	2040	10.852793256839	1
19	2063	10.947009828233	0
19	2069	10.947231828233	1
19	2129	11.219887101664	3
19	2144	11.220109101664	1
19	2170	11.352571285698	3
19	2185	11.352793285698	1
19	2212	11.447009828233	0
19	2218	11.447231828233	1
19	2268	11.719887014086	3
19	2278	11.720109014086	1
19	2314	11.852571277227	3
19	2329	11.852793277227	1
19	2352	11.947009828233	0
19	2358	11.947231828233	1
19	2416	12.219886920563	3
19	2421	12.220108920563	1
19	2459	12.35257126032	3
19	2474	12.35279326032	1
19	2501	12.447009828233	0
19	2507	12.447231828233	1
19	2556	12.719886893618	3
19	2561	12.720108893618	1
19	2603	12.852571266991	3
19	2618	12.852793266991	1
19	2641	12.947009828233	0
19	2647	12.947231828233	1
19	2705	13.219887060141	3
19	2710	13.220109060141	1
19	2746	13.352570773702	3
19	2751	13.352792773702	1
19	2783	13.384780783303	3
19	2788	13.385002783303	1
19	2846	13.719887031609	3
19	2856	13.720109031609	1
19	2890	13.852570805295	3
19	2895	13.852792805295	1
19	2927	13.884780840933	3
19	2932	13.885002840933	1
19	2995	14.219887000331	3
19	3005	14.220109000331	1
19	3035	14.352570866533	3
19	3040	14.352792866533	1
19	3072	14.384780909943	3
19	3077	14.385002909943	1
19	3135	14.719887003635	3
19	3145	14.720109003635	1
19	3179	14.852570903831	3
19	3184	14.852792903831	1
19	3216	14.884780920842	3
19	3221	14.885002920842	1
19	3284	15.219887051811	3
19	3294	15.220109051811	1
19	3324	15.352570925609	3
19	3329	15.352792925609	1
19	3361	15.384780901283	3
19	3366	15.385002901283	1
19	3424	15.7198871118	3
19	3434	15.7201091118	1
19	3468	15.852570937482	3
19	3473	15.852792937482	1
19	3505	15.884780892772	3
19	3510	15.885002892772	1
19	3573	16.219887143141	3
19	3583	16.220109143141	1
19	3613	16.352570943033	3
19	3618	16.352792943033	1
19	3650	16.38478089232	3
19	3655	16.38500289232	1
19	3713	16.719887129616	3
19	3723	16.720109129616	1
19	3757	16.85257094455	3
19	3762	16.85279294455	1
19	3794	16.884780899651	3
19	3799	16.885002899651	1
19	3862	17.219887090088	3
19	3872	17.220109090088	1
19	3902	17.352570943491	3
19	3907	17.352792943491	1
19	3939	17.384780925238	3
19	3944	17.385002925238	1
19	4002	17.719887055874	3
19	4012	17.720109055874	1
19	4046	17.852570940789	3
19	4051	17.852792940789	1
19	4083	17.884780938598	3
19	4088	17.885002938598	1
19	4150	18.219887047351	3
19	4155	18.220109047351	1
19	4192	18.35257093738	3
19	4202	18.35279293738	1
19	4235	18.447009828233	0
19	4241	18.447231828233	1
19	4290	18.719887061031	3
19	4295	18.720109061031	1
19	4336	18.852570954016	3
19	4346	18.852792954016	1
19	4375	18.947009828233	0
19	4381	18.947231828233	1
19	4439	19.219887075942	3
19	4444	19.220109075942	1
19	4482	19.384780840445	3
19	4492	19.385002840445	1
19	4524	19.447009828233	0
19	4530	19.447231828233	1
19	4579	19.719887052265	3
19	4584	19.720109052265	1
19	4626	19.884780944587	3
19	4636	19.885002944587	1
19	4664	19.947009828233	0
19	4670	19.947231828233	1
19	4735	20.352570936766	3
19	4750	20.352792936766	1
19	4772	20.384781140351	3
19	4787	20.385003140351	1
19	4813	20.447009828233	0
19	4819	20.447231828233	1
19	4879	20.852570967622	3
19	4894	20.852792967622	1
19	4916	20.884781309668	3
19	4931	20.885003309668	1
19	4953	20.947009828233	0
19	4959	20.947231828233	1
20	273	3.947009828233	1
20	274	3.947009828233	2
20	278	3.947231828233	1
20	282	3.947231828233	0
20	344	4.447009828233	1
20	345	4.447009828233	2
20	349	4.447231828233	1
20	353	4.447231828233	0
20	406	4.947009828233	1
20	407	4.947009828233	2
20	411	4.947231828233	1
20	415	4.947231828233	0
20	477	5.447009828233	1
20	478	5.447009828233	2
20	482	5.447231828233	1
20	486	5.447231828233	0
20	618	5.947009828233	1
20	619	5.947009828233	2
20	623	5.947231828233	1
20	624	5.947231828233	0
20	767	6.447009828233	1
20	768	6.447009828233	2
20	772	6.447231828233	1
20	773	6.447231828233	0
20	907	6.947009828233	1
20	908	6.947009828233	2
20	912	6.947231828233	1
20	913	6.947231828233	0
20	1056	7.447009828233	1
20	1057	7.447009828233	2
20	1061	7.447231828233	1
20	1062	7.447231828233	0
20	1196	7.947009828233	1
20	1197	7.947009828233	2
20	1201	7.947231828233	1
20	1202	7.947231828233	0
20	1345	8.447009828233	1
20	1346	8.447009828233	2
20	1350	8.447231828233	1
20	1351	8.447231828233	0
20	1485	8.947009828233	1
20	1486	8.947009828233	2
20	1490	8.947231828233	1
20	1491	8.947231828233	0
20	1634	9.447009828233	1
20	1635	9.447009828233	2
20	1639	9.447231828233	1
20	1640	9.447231828233	0
20	1774	9.947009828233	1
20	1775	9.947009828233	2
20	1779	9.947231828233	1
20	1780	9.947231828233	0
20	1923	10.447009828233	1
20	1924	10.447009828233	2
20	1928	10.447231828233	1
20	1929	10.447231828233	0
20	2063	10.947009828233	1
20	2064	10.947009828233	2
20	2068	10.947231828233	1
20	2069	10.947231828233	0
20	2212	11.447009828233	1
20	2213	11.447009828233	2
20	2217	11.447231828233	1
20	2218	11.447231828233	0
20	2352	11.947009828233	1
20	2353	11.947009828233	2
20	2357	11.947231828233	1
20	2358	11.947231828233	0
20	2501	12.447009828233	1
20	2502	12.447009828233	2
20	2506	12.447231828233	1
20	2507	12.447231828233	0
20	2641	12.947009828233	1
20	2642	12.947009828233	2
20	2646	12.947231828233	1
20	2647	12.947231828233	0
20	4235	18.447009828233	1
20	4236	18.447009828233	2
20	4240	18.447231828233	1
20	4241	18.447231828233	0
20	4375	18.947009828233	1
20	4376	18.947009828233	2
20	4380	18.947231828233	1
20	4381	18.947231828233	0
20	4524	19.447009828233	1
20	4525	19.447009828233	2
20	4529	19.447231828233	1
20	4530	19.447231828233	0
20	4664	19.947009828233	1
20	4665	19.947009828233	2
20	4669	19.947231828233	1
20	4670	19.947231828233	0
20	4813	20.447009828233	1
20	4814	20.447009828233	2
20	4818	20.447231828233	1
20	4819	20.447231828233	0
20	4953	20.947009828233	1
20	4954	20.947009828233	2
20	4958	20.947231828233	1
20	4959	20.947231828233	0
21	0	0	0
22	0	0	0
22	0	0	0
22	0	0	0
22	0	0	0
22	268	3.947009828233	0
22	268	3.947009828233	2
22	270	3.947009828233	2
22	270	3.947009828233	3
22	273	3.947009828233	3
22	273	3.947009828233	3
22	278	3.947231828233	3
22	278	3.947231828233	0
22	282	3.947231828233	0
22	282	3.947231828233	0
22	339	4.447009828233	0
22	339	4.447009828233	2
22	341	4.447009828233	2
22	341	4.447009828233	3
22	344	4.447009828233	3
22	344	4.447009828233	3
22	349	4.447231828233	3
22	349	4.447231828233	0
22	353	4.447231828233	0
22	353	4.447231828233	0
22	401	4.947009828233	0
22	401	4.947009828233	2
22	403	4.947009828233	2
22	403	4.947009828233	3
22	406	4.947009828233	3
22	406	4.947009828233	3
22	411	4.947231828233	3
22	411	4.947231828233	0
22	415	4.947231828233	0
22	415	4.947231828233	0
22	472	5.447009828233	0
22	472	5.447009828233	2
22	474	5.447009828233	2
22	474	5.447009828233	3
22	477	5.447009828233	3
22	477	5.447009828233	3
22	482	5.447231828233	3
22	482	5.447231828233	0
22	486	5.447231828233	0
22	486	5.447231828233	0
22	531	5.719886709309	0
22	531	5.719886709309	0
22	535	5.720108709309	0
22	535	5.720108709309	0
22	581	5.884780786212	0
22	581	5.884780786212	0
22	596	5.885002786212	0
22	596	5.885002786212	0
22	613	5.947009828233	0
22	613	5.947009828233	2
22	615	5.947009828233	2
22	615	5.947009828233	3
22	618	5.947009828233	3
22	618	5.947009828233	3
22	623	5.947231828233	3
22	623	5.947231828233	0
22	624	5.947231828233	0
22	624	5.947231828233	0
22	684	6.219886775948	0
22	684	6.219886775948	0
22	699	6.220108775948	0
22	699	6.220108775948	0
22	726	6.384780963636	0
22	726	6.384780963636	0
22	741	6.385002963636	0
22	741	6.385002963636	0
22	762	6.447009828233	0
22	762	6.447009828233	2
22	764	6.447009828233	2
22	764	6.447009828233	3
22	767	6.447009828233	3
22	767	6.447009828233	3
22	772	6.447231828233	3
22	772	6.447231828233	0
22	773	6.447231828233	0
22	773	6.447231828233	0
22	824	6.719886955999	0
22	824	6.719886955999	0
22	839	6.720108955999	0
22	839	6.720108955999	0
22	870	6.884781281265	0
22	870	6.884781281265	0
22	885	6.885003281265	0
22	885	6.885003281265	0
22	902	6.947009828233	0
22	902	6.947009828233	2
22	904	6.947009828233	2
22	904	6.947009828233	3
22	907	6.947009828233	3
22	907	6.947009828233	3
22	912	6.947231828233	3
22	912	6.947231828233	0
22	913	6.947231828233	0
22	913	6.947231828233	0
22	973	7.219887089279	0
22	973	7.219887089279	0
22	988	7.220109089279	0
22	988	7.220109089279	0
22	1015	7.384781519329	0
22	1015	7.384781519329	0
22	1030	7.385003519329	0
22	1030	7.385003519329	0
22	1051	7.447009828233	0
22	1051	7.447009828233	2
22	1053	7.447009828233	2
22	1053	7.447009828233	3
22	1056	7.447009828233	3
22	1056	7.447009828233	3
22	1061	7.447231828233	3
22	1061	7.447231828233	0
22	1062	7.447231828233	0
22	1062	7.447231828233	0
22	1113	7.719887144434	0
22	1113	7.719887144434	0
22	1128	7.720109144434	0
22	1128	7.720109144434	0
22	1159	7.884781634363	0
22	1159	7.884781634363	0
22	1174	7.885003634363	0
22	1174	7.885003634363	0
22	1191	7.947009828233	0
22	1191	7.947009828233	2
22	1193	7.947009828233	2
22	1193	7.947009828233	3
22	1196	7.947009828233	3
22	1196	7.947009828233	3
22	1201	7.947231828233	3
22	1201	7.947231828233	0
22	1202	7.947231828233	0
22	1202	7.947231828233	0
22	1261	8.219887084493	0
22	1261	8.219887084493	0
22	1271	8.220109084493	0
22	1271	8.220109084493	0
22	1304	8.384781651111	0
22	1304	8.384781651111	0
22	1319	8.385003651111	0
22	1319	8.385003651111	0
22	1340	8.447009828233	0
22	1340	8.447009828233	2
22	1342	8.447009828233	2
22	1342	8.447009828233	3
22	1345	8.447009828233	3
22	1345	8.447009828233	3
22	1350	8.447231828233	3
22	1350	8.447231828233	0
22	1351	8.447231828233	0
22	1351	8.447231828233	0
22	1400	8.719886959007	0
22	1400	8.719886959007	0
22	1405	8.720108959007	0
22	1405	8.720108959007	0
22	1448	8.884781625714	0
22	1448	8.884781625714	0
22	1463	8.885003625714	0
22	1463	8.885003625714	0
22	1480	8.947009828233	0
22	1480	8.947009828233	2
22	1482	8.947009828233	2
22	1482	8.947009828233	3
22	1485	8.947009828233	3
22	1485	8.947009828233	3
22	1490	8.947231828233	3
22	1490	8.947231828233	0
22	1491	8.947231828233	0
22	1491	8.947231828233	0
22	1549	9.219886868365	0
22	1549	9.219886868365	0
22	1554	9.220108868365	0
22	1554	9.220108868365	0
22	1592	9.35257111947	0
22	1592	9.35257111947	0
22	1607	9.35279311947	0
22	1607	9.35279311947	0
22	1629	9.447009828233	0
22	1629	9.447009828233	2
22	1631	9.447009828233	2
22	1631	9.447009828233	3
22	1634	9.447009828233	3
22	1634	9.447009828233	3
22	1639	9.447231828233	3
22	1639	9.447231828233	0
22	1640	9.447231828233	0
22	1640	9.447231828233	0
22	1689	9.719886884257	0
22	1689	9.719886884257	0
22	1694	9.720108884257	0
22	1694	9.720108884257	0
22	1736	9.852571143388	0
22	1736	9.852571143388	0
22	1751	9.852793143388	0
22	1751	9.852793143388	0
22	1769	9.947009828233	0
22	1769	9.947009828233	2
22	1771	9.947009828233	2
22	1771	9.947009828233	3
22	1774	9.947009828233	3
22	1774	9.947009828233	3
22	1779	9.947231828233	3
22	1779	9.947231828233	0
22	1780	9.947231828233	0
22	1780	9.947231828233	0
22	1840	10.219886992572	0
22	1840	10.219886992572	0
22	1855	10.220108992572	0
22	1855	10.220108992572	0
22	1881	10.352571200261	0
22	1881	10.352571200261	0
22	1896	10.352793200261	0
22	1896	10.352793200261	0
22	1918	10.447009828233	0
22	1918	10.447009828233	2
22	1920	10.447009828233	2
22	1920	10.447009828233	3
22	1923	10.447009828233	3
22	1923	10.447009828233	3
22	1928	10.447231828233	3
22	1928	10.447231828233	0
22	1929	10.447231828233	0
22	1929	10.447231828233	0
22	1980	10.719887095146	0
22	1980	10.719887095146	0
22	1995	10.720109095146	0
22	1995	10.720109095146	0
22	2025	10.852571256839	0
22	2025	10.852571256839	0
22	2040	10.852793256839	0
22	2040	10.852793256839	0
22	2058	10.947009828233	0
22	2058	10.947009828233	2
22	2060	10.947009828233	2
22	2060	10.947009828233	3
22	2063	10.947009828233	3
22	2063	10.947009828233	3
22	2068	10.947231828233	3
22	2068	10.947231828233	0
22	2069	10.947231828233	0
22	2069	10.947231828233	0
22	2129	11.219887101664	0
22	2129	11.219887101664	0
22	2144	11.220109101664	0
22	2144	11.220109101664	0
22	2170	11.352571285698	0
22	2170	11.352571285698	0
22	2185	11.352793285698	0
22	2185	11.352793285698	0
22	2207	11.447009828233	0
22	2207	11.447009828233	2
22	2209	11.447009828233	2
22	2209	11.447009828233	3
22	2212	11.447009828233	3
22	2212	11.447009828233	3
22	2217	11.447231828233	3
22	2217	11.447231828233	0
22	2218	11.447231828233	0
22	2218	11.447231828233	0
22	2268	11.719887014086	0
22	2268	11.719887014086	0
22	2278	11.720109014086	0
22	2278	11.720109014086	0
22	2314	11.852571277227	0
22	2314	11.852571277227	0
22	2329	11.852793277227	0
22	2329	11.852793277227	0
22	2347	11.947009828233	0
22	2347	11.947009828233	2
22	2349	11.947009828233	2
22	2349	11.947009828233	3
22	2352	11.947009828233	3
22	2352	11.947009828233	3
22	2357	11.947231828233	3
22	2357	11.947231828233	0
22	2358	11.947231828233	0
22	2358	11.947231828233	0
22	2416	12.219886920563	0
22	2416	12.219886920563	0
22	2421	12.220108920563	0
22	2421	12.220108920563	0
22	2459	12.35257126032	0
22	2459	12.35257126032	0
22	2474	12.35279326032	0
22	2474	12.35279326032	0
22	2496	12.447009828233	0
22	2496	12.447009828233	2
22	2498	12.447009828233	2
22	2498	12.447009828233	3
22	2501	12.447009828233	3
22	2501	12.447009828233	3
22	2506	12.447231828233	3
22	2506	12.447231828233	0
22	2507	12.447231828233	0
22	2507	12.447231828233	0
22	2556	12.719886893618	0
22	2556	12.719886893618	0
22	2561	12.720108893618	0
22	2561	12.720108893618	0
22	2603	12.852571266991	0
22	2603	12.852571266991	0
22	2618	12.852793266991	0
22	2618	12.852793266991	0
22	2636	12.947009828233	0
22	2636	12.947009828233	2
22	2638	12.947009828233	2
22	2638	12.947009828233	3
22	2641	12.947009828233	3
22	2641	12.947009828233	3
22	2646	12.947231828233	3
22	2646	12.947231828233	0
22	2647	12.947231828233	0
22	2647	12.947231828233	0
22	2705	13.219887060141	0
22	2705	13.219887060141	0
22	2710	13.220109060141	0
22	2710	13.220109060141	0
22	2746	13.352570773702	0
22	2746	13.352570773702	0
22	2751	13.352792773702	0
22	2751	13.352792773702	0
22	2783	13.384780783303	0
22	2783	13.384780783303	0
22	2788	13.385002783303	0
22	2788	13.385002783303	0
22	2846	13.719887031609	0
22	2846	13.719887031609	0
22	2856	13.720109031609	0
22	2856	13.720109031609	0
22	2890	13.852570805295	0
22	2890	13.852570805295	0
22	2895	13.852792805295	0
22	2895	13.852792805295	0
22	2927	13.884780840933	0
22	2927	13.884780840933	0
22	2932	13.885002840933	0
22	2932	13.885002840933	0
22	2995	14.219887000331	0
22	2995	14.219887000331	0
22	3005	14.220109000331	0
22	3005	14.220109000331	0
22	3035	14.352570866533	0
22	3035	14.352570866533	0
22	3040	14.352792866533	0
22	3040	14.352792866533	0
22	3072	14.384780909943	0
22	3072	14.384780909943	0
22	3077	14.385002909943	0
22	3077	14.385002909943	0
22	3135	14.719887003635	0
22	3135	14.719887003635	0
22	3145	14.720109003635	0
22	3145	14.720109003635	0
22	3179	14.852570903831	0
22	3179	14.852570903831	0
22	3184	14.852792903831	0
22	3184	14.852792903831	0
22	3216	14.884780920842	0
22	3216	14.884780920842	0
22	3221	14.885002920842	0
22	3221	14.885002920842	0
22	3284	15.219887051811	0
22	3284	15.219887051811	0
22	3294	15.220109051811	0
22	3294	15.220109051811	0
22	3324	15.352570925609	0
22	3324	15.352570925609	0
22	3329	15.352792925609	0
22	3329	15.352792925609	0
22	3361	15.384780901283	0
22	3361	15.384780901283	0
22	3366	15.385002901283	0
22	3366	15.385002901283	0
22	3424	15.7198871118	0
22	3424	15.7198871118	0
22	3434	15.7201091118	0
22	3434	15.7201091118	0
22	3468	15.852570937482	0
22	3468	15.852570937482	0
22	3473	15.852792937482	0
22	3473	15.852792937482	0
22	3505	15.884780892772	0
22	3505	15.884780892772	0
22	3510	15.885002892772	0
22	3510	15.885002892772	0
22	3573	16.219887143141	0
22	3573	16.219887143141	0
22	3583	16.220109143141	0
22	3583	16.220109143141	0
22	3613	16.352570943033	0
22	3613	16.352570943033	0
22	3618	16.352792943033	0
22	3618	16.352792943033	0
22	3650	16.38478089232	0
22	3650	16.38478089232	0
22	3655	16.38500289232	0
22	3655	16.38500289232	0
22	3713	16.719887129616	0
22	3713	16.719887129616	0
22	3723	16.720109129616	0
22	3723	16.720109129616	0
22	3757	16.85257094455	0
22	3757	16.85257094455	0
22	3762	16.85279294455	0
22	3762	16.85279294455	0
22	3794	16.884780899651	0
22	3794	16.884780899651	0
22	3799	16.885002899651	0
22	3799	16.885002899651	0
22	3862	17.219887090088	0
22	3862	17.219887090088	0
22	3872	17.220109090088	0
22	3872	17.220109090088	0
22	3902	17.352570943491	0
22	3902	17.352570943491	0
22	3907	17.352792943491	0
22	3907	17.352792943491	0
22	3939	17.384780925238	0
22	3939	17.384780925238	0
22	3944	17.385002925238	0
22	3944	17.385002925238	0
22	4002	17.719887055874	0
22	4002	17.719887055874	0
22	4012	17.720109055874	0
22	4012	17.720109055874	0
22	4046	17.852570940789	0
22	4046	17.852570940789	0
22	4051	17.852792940789	0
22	4051	17.852792940789	0
22	4083	17.884780938598	0
22	4083	17.884780938598	0
22	4088	17.885002938598	0
22	4088	17.885002938598	0
22	4150	18.219887047351	0
22	4150	18.219887047351	0
22	4155	18.220109047351	0
22	4155	18.220109047351	0
22	4192	18.35257093738	0
22	4192	18.35257093738	0
22	4202	18.35279293738	0
22	4202	18.35279293738	0
22	4230	18.447009828233	0
22	4230	18.447009828233	2
22	4232	18.447009828233	2
22	4232	18.447009828233	3
22	4235	18.447009828233	3
22	4235	18.447009828233	3
22	4240	18.447231828233	3
22	4240	18.447231828233	0
22	4241	18.447231828233	0
22	4241	18.447231828233	0
22	4290	18.719887061031	0
22	4290	18.719887061031	0
22	4295	18.720109061031	0
22	4295	18.720109061031	0
22	4336	18.852570954016	0
22	4336	18.852570954016	0
22	4346	18.852792954016	0
22	4346	18.852792954016	0
22	4370	18.947009828233	0
22	4370	18.947009828233	2
22	4372	18.947009828233	2
22	4372	18.947009828233	3
22	4375	18.947009828233	3
22	4375	18.947009828233	3
22	4380	18.947231828233	3
22	4380	18.947231828233	0
22	4381	18.947231828233	0
22	4381	18.947231828233	0
22	4439	19.219887075942	0
22	4439	19.219887075942	0
22	4444	19.220109075942	0
22	4444	19.220109075942	0
22	4482	19.384780840445	0
22	4482	19.384780840445	0
22	4492	19.385002840445	0
22	4492	19.385002840445	0
22	4519	19.447009828233	0
22	4519	19.447009828233	2
22	4521	19.447009828233	2
22	4521	19.447009828233	3
22	4524	19.447009828233	3
22	4524	19.447009828233	3
22	4529	19.447231828233	3
22	4529	19.447231828233	0
22	4530	19.447231828233	0
22	4530	19.447231828233	0
22	4579	19.719887052265	0
22	4579	19.719887052265	0
22	4584	19.720109052265	0
22	4584	19.720109052265	0
22	4626	19.884780944587	0
22	4626	19.884780944587	0
22	4636	19.885002944587	0
22	4636	19.885002944587	0
22	4659	19.947009828233	0
22	4659	19.947009828233	2
22	4661	19.947009828233	2
22	4661	19.947009828233	3
22	4664	19.947009828233	3
22	4664	19.947009828233	3
22	4669	19.947231828233	3
22	4669	19.947231828233	0
22	4670	19.947231828233	0
22	4670	19.947231828233	0
22	4735	20.352570936766	0
22	4735	20.352570936766	0
22	4750	20.352792936766	0
22	4750	20.352792936766	0
22	4772	20.384781140351	0
22	4772	20.384781140351	0
22	4787	20.385003140351	0
22	4787	20.385003140351	0
22	4808	20.447009828233	0
22	4808	20.447009828233	2
22	4810	20.447009828233	2
22	4810	20.447009828233	3
22	4813	20.447009828233	3
22	4813	20.447009828233	3
22	4818	20.447231828233	3
22	4818	20.447231828233	0
22	4819	20.447231828233	0
22	4819	20.447231828233	0
22	4879	20.852570967622	0
22	4879	20.852570967622	0
22	4894	20.852792967622	0
22	4894	20.852792967622	0
22	4916	20.884781309668	0
22	4916	20.884781309668	0
22	4931	20.885003309668	0
22	4931	20.885003309668	0
22	4948	20.947009828233	0
22	4948	20.947009828233	2
22	4950	20.947009828233	2
22	4950	20.947009828233	3
22	4953	20.947009828233	3
22	4953	20.947009828233	3
22	4958	20.947231828233	3
22	4958	20.947231828233	0
22	4959	20.947231828233	0
22	4959	20.947231828233	0
23	575	5.884780782412	512
23	641	5.94723183812	512
23	698	6.22010873252	512
23	720	6.384780782412	512
23	791	6.447232047132	512
23	838	6.72010885957	512
23	864	6.884780782412	512
23	931	6.947232363192	512
23	987	7.22010901735	512
23	1009	7.384780782412	512
23	1080	7.447232585711	512
23	1127	7.720109124374	512
23	1153	7.884780782412	512
23	1220	7.947232686576	512
23	1282	8.220109227176	512
23	1298	8.384780782412	512
23	1369	8.447232694815	512
23	1422	8.720109327314	512
23	1442	8.884780782412	512
23	1509	8.947232668686	512
23	2721	13.220109060141	512
23	2762	13.352792774152	512
23	2779	13.384780782412	512
23	2855	13.7201090027	512
23	2906	13.852792857738	512
23	2923	13.884780782412	512
23	3004	14.22010889688	512
23	3051	14.352792991389	512
23	3068	14.384780782412	512
23	3144	14.720108885997	512
23	3195	14.85279304252	512
23	3212	14.884780782412	512
23	3293	15.220108967668	512
23	3340	15.352793038446	512
23	3357	15.384780782412	512
23	3433	15.720109071457	512
23	3484	15.852793022553	512
23	3501	15.884780782412	512
23	3582	16.220109115745	512
23	3629	16.352793022046	512
23	3646	16.384780782412	512
23	3722	16.720109068446	512
23	3773	16.852793046157	512
23	3790	16.884780782412	512
23	3871	17.220108972835	512
23	3918	17.352793081332	512
23	3935	17.384780782412	512
23	4011	17.720108903865	512
23	4062	17.852793096602	512
23	4079	17.884780782412	512
23	4460	19.220109120674	512
23	4477	19.384780782412	512
23	4536	19.447231890038	512
23	4595	19.72010915726	512
23	4621	19.884780782412	512
23	4682	19.94723201565	512
23	4749	20.352792759372	512
23	4766	20.384780782412	512
23	4837	20.447232207728	512
23	4893	20.852792899093	512
23	4910	20.884780782412	512
23	4977	20.947232373532	512
24	564	5.884780782412	512
24	711	6.384780782412	512
24	855	6.884780782412	512
24	1000	7.384780782412	512
24	1144	7.884780782412	512
24	1289	8.384780782412	512
24	1433	8.884780782412	512
24	2770	13.384780782412	512
24	2914	13.884780782412	512
24	3059	14.384780782412	512
24	3203	14.884780782412	512
24	3348	15.384780782412	512
24	3492	15.884780782412	512
24	3637	16.384780782412	512
24	3781	16.884780782412	512
24	3926	17.384780782412	512
24	4070	17.884780782412	512
24	4468	19.384780782412	512
24	4612	19.884780782412	512
24	4757	20.384780782412	512
24	4901	20.884780782412	512
25	575	5.884780782412	0
25	641	5.94723183812	0.000222009887
25	698	6.22010873252	0.000222023211
25	720	6.384780782412	0
25	791	6.447232047132	0.000222218899
25	838	6.72010885957	0.000222150261
25	864	6.884780782412	0
25	931	6.947232363192	0.000222534959
25	987	7.22010901735	0.000222308041
25	1009	7.384780782412	0
25	1080	7.447232585711	0.000222757478
25	1127	7.720109124374	0.000222415065
25	1153	7.884780782412	0
25	1220	7.947232686576	0.000222858343
25	1282	8.220109227176	0.000222517867
25	1298	8.384780782412	0
25	1369	8.447232694815	0.000222866582
25	1422	8.720109327314	0.000222618005
25	1442	8.884780782412	0
25	1509	8.947232668686	0.000222840453
25	2721	13.220109060141	0.000222350832
25	2762	13.352792774152	0.000222099118
25	2779	13.384780782412	0
25	2855	13.7201090027	0.000222293391
25	2906	13.852792857738	0.000222182704
25	2923	13.884780782412	0
25	3004	14.22010889688	0.000222187571
25	3051	14.352792991389	0.000222316355
25	3068	14.384780782412	0
25	3144	14.720108885997	0.000222176688
25	3195	14.85279304252	0.000222367486
25	3212	14.884780782412	0
25	3293	15.220108967668	0.000222258359
25	3340	15.352793038446	0.000222363412
25	3357	15.384780782412	0
25	3433	15.720109071457	0.000222362148
25	3484	15.852793022553	0.000222347519
25	3501	15.884780782412	0
25	3582	16.220109115745	0.000222406436
25	3629	16.352793022046	0.000222347012
25	3646	16.384780782412	0
25	3722	16.720109068446	0.000222359137
25	3773	16.852793046157	0.000222371123
25	3790	16.884780782412	0
25	3871	17.220108972835	0.000222263526
25	3918	17.352793081332	0.000222406298
25	3935	17.384780782412	0
25	4011	17.720108903865	0.000222194556
25	4062	17.852793096602	0.000222421568
25	4079	17.884780782412	0
25	4460	19.220109120674	0.000222411365
25	4477	19.384780782412	0
25	4536	19.447231890038	0.000222061805
25	4595	19.72010915726	0.000222447951
25	4621	19.884780782412	0
25	4682	19.94723201565	0.000222187417
25	4749	20.352792759372	0.000222084338
25	4766	20.384780782412	0
25	4837	20.447232207728	0.000222379495
25	4893	20.852792899093	0.000222224059
25	4910	20.884780782412	0
25	4977	20.947232373532	0.000222545299
27	567	5.884780782412	520
27	712	6.384780782412	520
27	856	6.884780782412	520
27	1001	7.384780782412	520
27	1145	7.884780782412	520
27	1290	8.384780782412	520
27	1434	8.884780782412	520
27	2771	13.384780782412	520
27	2915	13.884780782412	520
27	3060	14.384780782412	520
27	3204	14.884780782412	520
27	3349	15.384780782412	520
27	3493	15.884780782412	520
27	3638	16.384780782412	520
27	3782	16.884780782412	520
27	3927	17.384780782412	520
27	4071	17.884780782412	520
27	4469	19.384780782412	520
27	4613	19.884780782412	520
27	4758	20.384780782412	520
27	4902	20.884780782412	520
28	292	3.947231828233	520
28	363	4.447231828233	520
28	425	4.947231828233	520
28	496	5.447231828233	520
28	549	5.720108709309	520
28	573	5.884780782412	520
28	639	5.94723183812	520
28	697	6.22010873252	520
28	718	6.384780782412	520
28	790	6.447232047132	520
28	837	6.72010885957	520
28	862	6.884780782412	520
28	930	6.947232363192	520
28	986	7.22010901735	520
28	1007	7.384780782412	520
28	1079	7.447232585711	520
28	1126	7.720109124374	520
28	1151	7.884780782412	520
28	1219	7.947232686576	520
28	1281	8.220109227176	520
28	1296	8.384780782412	520
28	1368	8.447232694815	520
28	1421	8.720109327314	520
28	1440	8.884780782412	520
28	1508	8.947232668686	520
28	1568	9.220109008727	520
28	1599	9.352792675053	520
28	1657	9.447232273666	520
28	1710	9.720109004205	520
28	1743	9.852792676425	520
28	1797	9.947232307421	520
28	1853	10.220108956241	520
28	1888	10.352792677547	520
28	1946	10.447232366617	520
28	1987	10.72010892009	520
28	2032	10.852792683501	520
28	2080	10.947232406168	520
28	2136	11.220108938549	520
28	2177	11.352792713595	520
28	2229	11.44723239831	520
28	2276	11.720108999024	520
28	2321	11.852792743546	520
28	2369	11.947232358822	520
28	2431	12.220109051914	520
28	2466	12.352792760909	520
28	2518	12.447232329715	520
28	2571	12.720109073108	520
28	2610	12.852792769958	520
28	2658	12.94723233487	520
28	2719	13.220109060141	520
28	2761	13.352792774152	520
28	2777	13.384780782412	520
28	2854	13.7201090027	520
28	2905	13.852792857738	520
28	2921	13.884780782412	520
28	3003	14.22010889688	520
28	3050	14.352792991389	520
28	3066	14.384780782412	520
28	3143	14.720108885997	520
28	3194	14.85279304252	520
28	3210	14.884780782412	520
28	3292	15.220108967668	520
28	3339	15.352793038446	520
28	3355	15.384780782412	520
28	3432	15.720109071457	520
28	3483	15.852793022553	520
28	3499	15.884780782412	520
28	3581	16.220109115745	520
28	3628	16.352793022046	520
28	3644	16.384780782412	520
28	3721	16.720109068446	520
28	3772	16.852793046157	520
28	3788	16.884780782412	520
28	3870	17.220108972835	520
28	3917	17.352793081332	520
28	3933	17.384780782412	520
28	4010	17.720108903865	520
28	4061	17.852793096602	520
28	4077	17.884780782412	520
28	4164	18.220109047351	520
28	4200	18.352792937037	520
28	4246	18.447231829859	520
28	4305	18.720109071804	520
28	4344	18.852792935779	520
28	4386	18.947231852712	520
28	4458	19.220109120674	520
28	4475	19.384780782412	520
28	4535	19.447231890038	520
28	4594	19.72010915726	520
28	4619	19.884780782412	520
28	4681	19.94723201565	520
28	4748	20.352792759372	520
28	4764	20.384780782412	520
28	4836	20.447232207728	520
28	4892	20.852792899093	520
28	4908	20.884780782412	520
28	4976	20.947232373532	520
29	573	5.884780782412	1
29	639	5.94723183812	2
29	697	6.22010873252	3
29	718	6.384780782412	4
29	790	6.447232047132	5
29	837	6.72010885957	6
29	862	6.884780782412	7
29	930	6.947232363192	8
29	986	7.22010901735	9
29	1007	7.384780782412	10
29	1079	7.447232585711	11
29	1126	7.720109124374	12
29	1151	7.884780782412	13
29	1219	7.947232686576	14
29	1281	8.220109227176	15
29	1296	8.384780782412	16
29	1368	8.447232694815	17
29	1421	8.720109327314	18
29	1440	8.884780782412	19
29	1508	8.947232668686	20
29	1568	9.220109008727	21
29	1599	9.352792675053	22
29	1657	9.447232273666	23
29	1710	9.720109004205	24
29	1743	9.852792676425	25
29	1797	9.947232307421	26
29	1853	10.220108956241	27
29	1888	10.352792677547	28
29	1946	10.447232366617	29
29	1987	10.72010892009	30
29	2032	10.852792683501	31
29	2080	10.947232406168	32
29	2136	11.220108938549	33
29	2177	11.352792713595	34
29	2229	11.44723239831	35
29	2276	11.720108999024	36
29	2321	11.852792743546	37
29	2369	11.947232358822	38
29	2431	12.220109051914	39
29	2466	12.352792760909	40
29	2518	12.447232329715	41
29	2571	12.720109073108	42
29	2610	12.852792769958	43
29	2658	12.94723233487	44
29	2719	13.220109060141	45
29	2761	13.352792774152	46
29	2777	13.384780782412	47
29	2854	13.7201090027	48
29	2905	13.852792857738	49
29	2921	13.884780782412	50
29	3003	14.22010889688	51
29	3050	14.352792991389	52
29	3066	14.384780782412	53
29	3143	14.720108885997	54
29	3194	14.85279304252	55
29	3210	14.884780782412	56
29	3292	15.220108967668	57
29	3339	15.352793038446	58
29	3355	15.384780782412	59
29	3432	15.720109071457	60
29	3483	15.852793022553	61
29	3499	15.884780782412	62
29	3581	16.220109115745	63
29	3628	16.352793022046	64
29	3644	16.384780782412	65
29	3721	16.720109068446	66
29	3772	16.852793046157	67
29	3788	16.884780782412	68
29	3870	17.220108972835	69
29	3917	17.352793081332	70
29	3933	17.384780782412	71
29	4010	17.720108903865	72
29	4061	17.852793096602	73
29	4077	17.884780782412	74
29	4164	18.220109047351	75
29	4200	18.352792937037	76
29	4246	18.447231829859	77
29	4305	18.720109071804	78
29	4344	18.852792935779	79
29	4386	18.947231852712	80
29	4458	19.220109120674	81
29	4475	19.384780782412	82
29	4535	19.447231890038	83
29	4594	19.72010915726	84
29	4619	19.884780782412	85
29	4681	19.94723201565	86
29	4748	20.352792759372	87
29	4764	20.384780782412	88
29	4836	20.447232207728	89
29	4892	20.852792899093	90
29	4908	20.884780782412	91
29	4976	20.947232373532	92
30	292	3.947231828233	1
30	363	4.447231828233	2
30	425	4.947231828233	3
30	496	5.447231828233	4
30	549	5.720108709309	5
35	569	5.884780782412	540
35	714	6.384780782412	540
35	858	6.884780782412	540
35	1003	7.384780782412	540
35	1147	7.884780782412	540
35	1292	8.384780782412	540
35	1436	8.884780782412	540
35	2773	13.384780782412	540
35	2917	13.884780782412	540
35	3062	14.384780782412	540
35	3206	14.884780782412	540
35	3351	15.384780782412	540
35	3495	15.884780782412	540
35	3640	16.384780782412	540
35	3784	16.884780782412	540
35	3929	17.384780782412	540
35	4073	17.884780782412	540
35	4471	19.384780782412	540
35	4615	19.884780782412	540
35	4760	20.384780782412	540
35	4904	20.884780782412	540
36	569	5.884780782412	540
36	714	6.384780782412	540
36	858	6.884780782412	540
36	1003	7.384780782412	540
36	1147	7.884780782412	540
36	1292	8.384780782412	540
36	1436	8.884780782412	540
36	2773	13.384780782412	540
36	2917	13.884780782412	540
36	3062	14.384780782412	540
36	3206	14.884780782412	540
36	3351	15.384780782412	540
36	3495	15.884780782412	540
36	3640	16.384780782412	540
36	3784	16.884780782412	540
36	3929	17.384780782412	540
36	4073	17.884780782412	540
36	4471	19.384780782412	540
36	4615	19.884780782412	540
36	4760	20.384780782412	540
36	4904	20.884780782412	540
37	283	3.947231828233	576
37	354	4.447231828233	576
37	416	4.947231828233	576
37	487	5.447231828233	576
37	540	5.720108709309	576
37	633	5.94723183812	576
37	694	6.22010873252	576
37	787	6.447232047132	576
37	834	6.72010885957	576
37	927	6.947232363192	576
37	983	7.22010901735	576
37	1076	7.447232585711	576
37	1123	7.720109124374	576
37	1216	7.947232686576	576
37	1278	8.220109227176	576
37	1365	8.447232694815	576
37	1418	8.720109327314	576
37	1505	8.947232668686	576
37	1562	9.220109008727	576
37	1596	9.352792675053	576
37	1654	9.447232273666	576
37	1707	9.720109004205	576
37	1740	9.852792676425	576
37	1794	9.947232307421	576
37	1850	10.220108956241	576
37	1885	10.352792677547	576
37	1943	10.447232366617	576
37	1984	10.72010892009	576
37	2029	10.852792683501	576
37	2077	10.947232406168	576
37	2133	11.220108938549	576
37	2174	11.352792713595	576
37	2226	11.44723239831	576
37	2273	11.720108999024	576
37	2318	11.852792743546	576
37	2366	11.947232358822	576
37	2428	12.220109051914	576
37	2463	12.352792760909	576
37	2515	12.447232329715	576
37	2568	12.720109073108	576
37	2607	12.852792769958	576
37	2655	12.94723233487	576
37	2713	13.220109060141	576
37	2758	13.352792774152	576
37	2851	13.7201090027	576
37	2902	13.852792857738	576
37	3000	14.22010889688	576
37	3047	14.352792991389	576
37	3140	14.720108885997	576
37	3191	14.85279304252	576
37	3289	15.220108967668	576
37	3336	15.352793038446	576
37	3429	15.720109071457	576
37	3480	15.852793022553	576
37	3578	16.220109115745	576
37	3625	16.352793022046	576
37	3718	16.720109068446	576
37	3769	16.852793046157	576
37	3867	17.220108972835	576
37	3914	17.352793081332	576
37	4007	17.720108903865	576
37	4058	17.852793096602	576
37	4158	18.220109047351	576
37	4197	18.352792937037	576
37	4243	18.447231829859	576
37	4302	18.720109071804	576
37	4341	18.852792935779	576
37	4383	18.947231852712	576
37	4452	19.220109120674	576
37	4532	19.447231890038	576
37	4591	19.72010915726	576
37	4678	19.94723201565	576
37	4745	20.352792759372	576
37	4833	20.447232207728	576
37	4889	20.852792899093	576
37	4973	20.947232373532	576
38	576	5.884780782412	576
38	721	6.384780782412	576
38	865	6.884780782412	576
38	1010	7.384780782412	576
38	1154	7.884780782412	576
38	1299	8.384780782412	576
38	1443	8.884780782412	576
38	2780	13.384780782412	576
38	2924	13.884780782412	576
38	3069	14.384780782412	576
38	3213	14.884780782412	576
38	3358	15.384780782412	576
38	3502	15.884780782412	576
38	3647	16.384780782412	576
38	3791	16.884780782412	576
38	3936	17.384780782412	576
38	4080	17.884780782412	576
38	4478	19.384780782412	576
38	4622	19.884780782412	576
38	4767	20.384780782412	576
38	4911	20.884780782412	576
39	572	5.884780782412	576
39	717	6.384780782412	576
39	861	6.884780782412	576
39	1006	7.384780782412	576
39	1150	7.884780782412	576
39	1295	8.384780782412	576
39	1439	8.884780782412	576
39	2776	13.384780782412	576
39	2920	13.884780782412	576
39	3065	14.384780782412	576
39	3209	14.884780782412	576
39	3354	15.384780782412	576
39	3498	15.884780782412	576
39	3643	16.384780782412	576
39	3787	16.884780782412	576
39	3932	17.384780782412	576
39	4076	17.884780782412	576
39	4474	19.384780782412	576
39	4618	19.884780782412	576
39	4763	20.384780782412	576
39	4907	20.884780782412	576
40	283	3.947231828233	576
40	354	4.447231828233	576
40	416	4.947231828233	576
40	487	5.447231828233	576
40	540	5.720108709309	576
40	633	5.94723183812	576
40	694	6.22010873252	576
40	787	6.447232047132	576
40	834	6.72010885957	576
40	927	6.947232363192	576
40	983	7.22010901735	576
40	1076	7.447232585711	576
40	1123	7.720109124374	576
40	1216	7.947232686576	576
40	1278	8.220109227176	576
40	1365	8.447232694815	576
40	1418	8.720109327314	576
40	1505	8.947232668686	576
40	1562	9.220109008727	576
40	1596	9.352792675053	576
40	1654	9.447232273666	576
40	1707	9.720109004205	576
40	1740	9.852792676425	576
40	1794	9.947232307421	576
40	1850	10.220108956241	576
40	1885	10.352792677547	576
40	1943	10.447232366617	576
40	1984	10.72010892009	576
40	2029	10.852792683501	576
40	2077	10.947232406168	576
40	2133	11.220108938549	576
40	2174	11.352792713595	576
40	2226	11.44723239831	576
40	2273	11.720108999024	576
40	2318	11.852792743546	576
40	2366	11.947232358822	576
40	2428	12.220109051914	576
40	2463	12.352792760909	576
40	2515	12.447232329715	576
40	2568	12.720109073108	576
40	2607	12.852792769958	576
40	2655	12.94723233487	576
40	2713	13.220109060141	576
40	2758	13.352792774152	576
40	2851	13.7201090027	576
40	2902	13.852792857738	576
40	3000	14.22010889688	576
40	3047	14.352792991389	576
40	3140	14.720108885997	576
40	3191	14.85279304252	576
40	3289	15.220108967668	576
40	3336	15.352793038446	576
40	3429	15.720109071457	576
40	3480	15.852793022553	576
40	3578	16.220109115745	576
40	3625	16.352793022046	576
40	3718	16.720109068446	576
40	3769	16.852793046157	576
40	3867	17.220108972835	576
40	3914	17.352793081332	576
40	4007	17.720108903865	576
40	4058	17.852793096602	576
40	4158	18.220109047351	576
40	4197	18.352792937037	576
40	4243	18.447231829859	576
40	4302	18.720109071804	576
40	4341	18.852792935779	576
40	4383	18.947231852712	576
40	4452	19.220109120674	576
40	4532	19.447231890038	576
40	4591	19.72010915726	576
40	4678	19.94723201565	576
40	4745	20.352792759372	576
40	4833	20.447232207728	576
40	4889	20.852792899093	576
40	4973	20.947232373532	576
41	0	0	0
41	0	0	2
41	577	5.884780782412	3
41	585	5.885002782412	2
41	722	6.384780782412	3
41	728	6.385002782412	2
41	866	6.884780782412	3
41	872	6.885002782412	2
41	1011	7.384780782412	3
41	1017	7.385002782412	2
41	1155	7.884780782412	3
41	1161	7.885002782412	2
41	1300	8.384780782412	3
41	1306	8.385002782412	2
41	1444	8.884780782412	3
41	1450	8.885002782412	2
41	2781	13.384780782412	3
41	2787	13.385002782412	2
41	2925	13.884780782412	3
41	2931	13.885002782412	2
41	3070	14.384780782412	3
41	3076	14.385002782412	2
41	3214	14.884780782412	3
41	3220	14.885002782412	2
41	3359	15.384780782412	3
41	3365	15.385002782412	2
41	3503	15.884780782412	3
41	3509	15.885002782412	2
41	3648	16.384780782412	3
41	3654	16.385002782412	2
41	3792	16.884780782412	3
41	3798	16.885002782412	2
41	3937	17.384780782412	3
41	3943	17.385002782412	2
41	4081	17.884780782412	3
41	4087	17.885002782412	2
41	4479	19.384780782412	3
41	4485	19.385002782412	2
41	4623	19.884780782412	3
41	4629	19.885002782412	2
41	4768	20.384780782412	3
41	4774	20.385002782412	2
41	4912	20.884780782412	3
41	4918	20.885002782412	2
42	0	0	1
42	275	3.947009828233	3
42	279	3.947231828233	1
42	346	4.447009828233	3
42	350	4.447231828233	1
42	408	4.947009828233	3
42	412	4.947231828233	1
42	479	5.447009828233	3
42	483	5.447231828233	1
42	532	5.719886709309	3
42	536	5.720108709309	1
42	577	5.884780782412	0
42	585	5.885002782412	1
42	621	5.94700983812	3
42	631	5.94723183812	1
42	683	6.21988673252	3
42	693	6.22010873252	1
42	722	6.384780782412	0
42	728	6.385002782412	1
42	771	6.447010047132	3
42	786	6.447232047132	1
42	823	6.71988685957	3
42	833	6.72010885957	1
42	866	6.884780782412	0
42	872	6.885002782412	1
42	911	6.947010363192	3
42	926	6.947232363192	1
42	972	7.21988701735	3
42	982	7.22010901735	1
42	1011	7.384780782412	0
42	1017	7.385002782412	1
42	1060	7.447010585711	3
42	1075	7.447232585711	1
42	1112	7.719887124374	3
42	1122	7.720109124374	1
42	1155	7.884780782412	0
42	1161	7.885002782412	1
42	1200	7.947010686576	3
42	1215	7.947232686576	1
42	1262	8.219887227176	3
42	1277	8.220109227176	1
42	1300	8.384780782412	0
42	1306	8.385002782412	1
42	1349	8.447010694815	3
42	1364	8.447232694815	1
42	1402	8.719887327314	3
42	1417	8.720109327314	1
42	1444	8.884780782412	0
42	1450	8.885002782412	1
42	1489	8.947010668686	3
42	1504	8.947232668686	1
42	1550	9.219887008727	3
42	1560	9.220109008727	1
42	1590	9.352570675053	3
42	1595	9.352792675053	1
42	1638	9.447010273666	3
42	1653	9.447232273666	1
42	1691	9.719887004205	3
42	1706	9.720109004205	1
42	1734	9.852570676425	3
42	1739	9.852792676425	1
42	1778	9.947010307421	3
42	1793	9.947232307421	1
42	1839	10.219886956241	3
42	1849	10.220108956241	1
42	1879	10.352570677547	3
42	1884	10.352792677547	1
42	1927	10.447010366617	3
42	1942	10.447232366617	1
42	1978	10.71988692009	3
42	1983	10.72010892009	1
42	2023	10.852570683501	3
42	2028	10.852792683501	1
42	2066	10.947010406168	3
42	2076	10.947232406168	1
42	2127	11.219886938549	3
42	2132	11.220108938549	1
42	2168	11.352570713595	3
42	2173	11.352792713595	1
42	2215	11.44701039831	3
42	2225	11.44723239831	1
42	2267	11.719886999024	3
42	2272	11.720108999024	1
42	2312	11.852570743546	3
42	2317	11.852792743546	1
42	2355	11.947010358822	3
42	2365	11.947232358822	1
42	2417	12.219887051914	3
42	2427	12.220109051914	1
42	2457	12.352570760909	3
42	2462	12.352792760909	1
42	2504	12.447010329715	3
42	2514	12.447232329715	1
42	2557	12.719887073108	3
42	2567	12.720109073108	1
42	2601	12.852570769958	3
42	2606	12.852792769958	1
42	2644	12.94701033487	3
42	2654	12.94723233487	1
42	2706	13.219887060141	3
42	2711	13.220109060141	1
42	2747	13.352570774152	3
42	2757	13.352792774152	1
42	2781	13.384780782412	0
42	2787	13.385002782412	1
42	2845	13.7198870027	3
42	2850	13.7201090027	1
42	2891	13.852570857738	3
42	2901	13.852792857738	1
42	2925	13.884780782412	0
42	2931	13.885002782412	1
42	2994	14.21988689688	3
42	2999	14.22010889688	1
42	3036	14.352570991389	3
42	3046	14.352792991389	1
42	3070	14.384780782412	0
42	3076	14.385002782412	1
42	3134	14.719886885997	3
42	3139	14.720108885997	1
42	3180	14.85257104252	3
42	3190	14.85279304252	1
42	3214	14.884780782412	0
42	3220	14.885002782412	1
42	3283	15.219886967668	3
42	3288	15.220108967668	1
42	3325	15.352571038446	3
42	3335	15.352793038446	1
42	3359	15.384780782412	0
42	3365	15.385002782412	1
42	3423	15.719887071457	3
42	3428	15.720109071457	1
42	3469	15.852571022553	3
42	3479	15.852793022553	1
42	3503	15.884780782412	0
42	3509	15.885002782412	1
42	3572	16.219887115745	3
42	3577	16.220109115745	1
42	3614	16.352571022046	3
42	3624	16.352793022046	1
42	3648	16.384780782412	0
42	3654	16.385002782412	1
42	3712	16.719887068446	3
42	3717	16.720109068446	1
42	3758	16.852571046157	3
42	3768	16.852793046157	1
42	3792	16.884780782412	0
42	3798	16.885002782412	1
42	3861	17.219886972835	3
42	3866	17.220108972835	1
42	3903	17.352571081332	3
42	3913	17.352793081332	1
42	3937	17.384780782412	0
42	3943	17.385002782412	1
42	4001	17.719886903865	3
42	4006	17.720108903865	1
42	4047	17.852571096602	3
42	4057	17.852793096602	1
42	4081	17.884780782412	0
42	4087	17.885002782412	1
42	4151	18.219887047351	3
42	4156	18.220109047351	1
42	4191	18.352570937037	3
42	4196	18.352792937037	1
42	4237	18.447009829859	3
42	4242	18.447231829859	1
42	4291	18.719887071804	3
42	4301	18.720109071804	1
42	4335	18.852570935779	3
42	4340	18.852792935779	1
42	4377	18.947009852712	3
42	4382	18.947231852712	1
42	4440	19.219887120674	3
42	4450	19.220109120674	1
42	4479	19.384780782412	0
42	4485	19.385002782412	1
42	4526	19.447009890038	3
42	4531	19.447231890038	1
42	4580	19.71988715726	3
42	4590	19.72010915726	1
42	4623	19.884780782412	0
42	4629	19.885002782412	1
42	4667	19.94701001565	3
42	4677	19.94723201565	1
42	4734	20.352570759372	3
42	4744	20.352792759372	1
42	4768	20.384780782412	0
42	4774	20.385002782412	1
42	4817	20.447010207728	3
42	4832	20.447232207728	1
42	4878	20.852570899093	3
42	4888	20.852792899093	1
42	4912	20.884780782412	0
42	4918	20.885002782412	1
42	4957	20.947010373532	3
42	4972	20.947232373532	1
43	577	5.884780782412	1
43	578	5.884780782412	2
43	582	5.885002782412	1
43	585	5.885002782412	0
43	722	6.384780782412	1
43	723	6.384780782412	2
43	727	6.385002782412	1
43	728	6.385002782412	0
43	866	6.884780782412	1
43	867	6.884780782412	2
43	871	6.885002782412	1
43	872	6.885002782412	0
43	1011	7.384780782412	1
43	1012	7.384780782412	2
43	1016	7.385002782412	1
43	1017	7.385002782412	0
43	1155	7.884780782412	1
43	1156	7.884780782412	2
43	1160	7.885002782412	1
43	1161	7.885002782412	0
43	1300	8.384780782412	1
43	1301	8.384780782412	2
43	1305	8.385002782412	1
43	1306	8.385002782412	0
43	1444	8.884780782412	1
43	1445	8.884780782412	2
43	1449	8.885002782412	1
43	1450	8.885002782412	0
43	2781	13.384780782412	1
43	2782	13.384780782412	2
43	2786	13.385002782412	1
43	2787	13.385002782412	0
43	2925	13.884780782412	1
43	2926	13.884780782412	2
43	2930	13.885002782412	1
43	2931	13.885002782412	0
43	3070	14.384780782412	1
43	3071	14.384780782412	2
43	3075	14.385002782412	1
43	3076	14.385002782412	0
43	3214	14.884780782412	1
43	3215	14.884780782412	2
43	3219	14.885002782412	1
43	3220	14.885002782412	0
43	3359	15.384780782412	1
43	3360	15.384780782412	2
43	3364	15.385002782412	1
43	3365	15.385002782412	0
43	3503	15.884780782412	1
43	3504	15.884780782412	2
43	3508	15.885002782412	1
43	3509	15.885002782412	0
43	3648	16.384780782412	1
43	3649	16.384780782412	2
43	3653	16.385002782412	1
43	3654	16.385002782412	0
43	3792	16.884780782412	1
43	3793	16.884780782412	2
43	3797	16.885002782412	1
43	3798	16.885002782412	0
43	3937	17.384780782412	1
43	3938	17.384780782412	2
43	3942	17.385002782412	1
43	3943	17.385002782412	0
43	4081	17.884780782412	1
43	4082	17.884780782412	2
43	4086	17.885002782412	1
43	4087	17.885002782412	0
43	4479	19.384780782412	1
43	4480	19.384780782412	2
43	4484	19.385002782412	1
43	4485	19.385002782412	0
43	4623	19.884780782412	1
43	4624	19.884780782412	2
43	4628	19.885002782412	1
43	4629	19.885002782412	0
43	4768	20.384780782412	1
43	4769	20.384780782412	2
43	4773	20.385002782412	1
43	4774	20.385002782412	0
43	4912	20.884780782412	1
43	4913	20.884780782412	2
43	4917	20.885002782412	1
[...]
88	4294	18.720108709309	1
88	4337	18.852571309025	3
88	4352	18.852793309025	1
88	4379	18.947010187526	3
88	4394	18.947232187526	1
88	4437	19.219886709309	0
88	4443	19.220108709309	1
88	4483	19.384781209693	3
88	4498	19.385003209693	1
88	4528	19.447010198244	3
88	4543	19.447232198244	1
88	4577	19.719886709309	0
88	4583	19.720108709309	1
88	4627	19.884781248501	3
88	4642	19.885003248501	1
88	4668	19.947010117638	3
88	4683	19.947232117638	1
88	4733	20.352570675034	3
88	4737	20.352792675034	1
88	4771	20.384780872601	3
88	4776	20.385002872601	1
88	4816	20.447010106625	3
88	4826	20.447232106625	1
88	4877	20.85257070665	3
88	4882	20.85279270665	1
88	4914	20.88478098369	3
88	4919	20.88500298369	1
88	4956	20.947010157188	3
88	4966	20.947232157188	1
89	529	5.719886709309	1
89	530	5.719886709309	2
89	534	5.720108709309	1
89	538	5.720108709309	0
89	680	6.219886709309	1
89	681	6.219886709309	2
89	685	6.220108709309	1
89	686	6.220108709309	0
89	820	6.719886709309	1
89	821	6.719886709309	2
89	825	6.720108709309	1
89	826	6.720108709309	0
89	969	7.219886709309	1
89	970	7.219886709309	2
89	974	7.220108709309	1
89	975	7.220108709309	0
89	1109	7.719886709309	1
89	1110	7.719886709309	2
89	1114	7.720108709309	1
89	1115	7.720108709309	0
89	1258	8.219886709309	1
89	1259	8.219886709309	2
89	1263	8.220108709309	1
89	1264	8.220108709309	0
89	1398	8.719886709309	1
89	1399	8.719886709309	2
89	1403	8.720108709309	1
89	1404	8.720108709309	0
89	1547	9.219886709309	1
89	1548	9.219886709309	2
89	1552	9.220108709309	1
89	1553	9.220108709309	0
89	1687	9.719886709309	1
89	1688	9.719886709309	2
89	1692	9.720108709309	1
89	1693	9.720108709309	0
89	1836	10.219886709309	1
89	1837	10.219886709309	2
89	1841	10.220108709309	1
89	1842	10.220108709309	0
89	1976	10.719886709309	1
89	1977	10.719886709309	2
89	1981	10.720108709309	1
89	1982	10.720108709309	0
89	2125	11.219886709309	1
89	2126	11.219886709309	2
89	2130	11.220108709309	1
89	2131	11.220108709309	0
89	2265	11.719886709309	1
89	2266	11.719886709309	2
89	2270	11.720108709309	1
89	2271	11.720108709309	0
89	2414	12.219886709309	1
89	2415	12.219886709309	2
89	2419	12.220108709309	1
89	2420	12.220108709309	0
89	2554	12.719886709309	1
89	2555	12.719886709309	2
89	2559	12.720108709309	1
89	2560	12.720108709309	0
89	2703	13.219886709309	1
89	2704	13.219886709309	2
89	2708	13.220108709309	1
89	2709	13.220108709309	0
89	2843	13.719886709309	1
89	2844	13.719886709309	2
89	2848	13.720108709309	1
89	2849	13.720108709309	0
89	2992	14.219886709309	1
89	2993	14.219886709309	2
89	2997	14.220108709309	1
89	2998	14.220108709309	0
89	3132	14.719886709309	1
89	3133	14.719886709309	2
89	3137	14.720108709309	1
89	3138	14.720108709309	0
89	3281	15.219886709309	1
89	3282	15.219886709309	2
89	3286	15.220108709309	1
89	3287	15.220108709309	0
89	3421	15.719886709309	1
89	3422	15.719886709309	2
89	3426	15.720108709309	1
89	3427	15.720108709309	0
89	3570	16.219886709309	1
89	3571	16.219886709309	2
89	3575	16.220108709309	1
89	3576	16.220108709309	0
89	3710	16.719886709309	1
89	3711	16.719886709309	2
89	3715	16.720108709309	1
89	3716	16.720108709309	0
89	3859	17.219886709309	1
89	3860	17.219886709309	2
89	3864	17.220108709309	1
89	3865	17.220108709309	0
89	3999	17.719886709309	1
89	4000	17.719886709309	2
89	4004	17.720108709309	1
89	4005	17.720108709309	0
89	4148	18.219886709309	1
89	4149	18.219886709309	2
89	4153	18.220108709309	1
89	4154	18.220108709309	0
89	4288	18.719886709309	1
89	4289	18.719886709309	2
89	4293	18.720108709309	1
89	4294	18.720108709309	0
89	4437	19.219886709309	1
89	4438	19.219886709309	2
89	4442	19.220108709309	1
89	4443	19.220108709309	0
89	4577	19.719886709309	1
89	4578	19.719886709309	2
89	4582	19.720108709309	1
89	4583	19.720108709309	0
90	0	0	0
91	0	0	0
91	0	0	0
91	0	0	0
91	0	0	0
91	277	3.947009828233	0
91	277	3.947009828233	0
91	281	3.947231828233	0
91	281	3.947231828233	0
91	348	4.447009828233	0
91	348	4.447009828233	0
91	352	4.447231828233	0
91	352	4.447231828233	0
91	410	4.947009828233	0
91	410	4.947009828233	0
91	414	4.947231828233	0
91	414	4.947231828233	0
91	481	5.447009828233	0
91	481	5.447009828233	0
91	485	5.447231828233	0
91	485	5.447231828233	0
91	524	5.719886709309	0
91	524	5.719886709309	2
91	526	5.719886709309	2
91	526	5.719886709309	3
91	529	5.719886709309	3
91	529	5.719886709309	3
91	534	5.720108709309	3
91	534	5.720108709309	0
91	538	5.720108709309	0
91	538	5.720108709309	0
91	580	5.884780782412	0
91	580	5.884780782412	0
91	584	5.885002782412	0
91	584	5.885002782412	0
91	620	5.94700983773	0
91	620	5.94700983773	0
91	625	5.94723183773	0
91	625	5.94723183773	0
91	675	6.219886709309	0
91	675	6.219886709309	2
91	677	6.219886709309	2
91	677	6.219886709309	3
91	680	6.219886709309	3
91	680	6.219886709309	3
91	685	6.220108709309	3
91	685	6.220108709309	0
91	686	6.220108709309	0
91	686	6.220108709309	0
91	725	6.384780835977	0
91	725	6.384780835977	0
91	735	6.385002835977	0
91	735	6.385002835977	0
91	769	6.447009980494	0
91	769	6.447009980494	0
91	774	6.447231980494	0
91	774	6.447231980494	0
91	815	6.719886709309	0
91	815	6.719886709309	2
91	817	6.719886709309	2
91	817	6.719886709309	3
91	820	6.719886709309	3
91	820	6.719886709309	3
91	825	6.720108709309	3
91	825	6.720108709309	0
91	826	6.720108709309	0
91	826	6.720108709309	0
91	869	6.884780992841	0
91	869	6.884780992841	0
91	879	6.885002992841	0
91	879	6.885002992841	0
91	909	6.947010142922	0
91	909	6.947010142922	0
91	914	6.947232142922	0
91	914	6.947232142922	0
91	964	7.219886709309	0
91	964	7.219886709309	2
91	966	7.219886709309	2
91	966	7.219886709309	3
91	969	7.219886709309	3
91	969	7.219886709309	3
91	974	7.220108709309	3
91	974	7.220108709309	0
91	975	7.220108709309	0
91	975	7.220108709309	0
91	1014	7.384781129871	0
91	1014	7.384781129871	0
91	1024	7.385003129871	0
91	1024	7.385003129871	0
91	1058	7.447010246885	0
91	1058	7.447010246885	0
91	1063	7.447232246885	0
91	1063	7.447232246885	0
91	1104	7.719886709309	0
91	1104	7.719886709309	2
91	1106	7.719886709309	2
91	1106	7.719886709309	3
91	1109	7.719886709309	3
91	1109	7.719886709309	3
91	1114	7.720108709309	3
91	1114	7.720108709309	0
91	1115	7.720108709309	0
91	1115	7.720108709309	0
91	1158	7.88478123179	0
91	1158	7.88478123179	0
91	1168	7.88500323179	0
91	1168	7.88500323179	0
91	1198	7.947010248487	0
91	1198	7.947010248487	0
91	1203	7.947232248487	0
91	1203	7.947232248487	0
91	1253	8.219886709309	0
91	1253	8.219886709309	2
91	1255	8.219886709309	2
91	1255	8.219886709309	3
91	1258	8.219886709309	3
91	1258	8.219886709309	3
91	1263	8.220108709309	3
91	1263	8.220108709309	0
91	1264	8.220108709309	0
91	1264	8.220108709309	0
91	1303	8.384781335462	0
91	1303	8.384781335462	0
91	1313	8.385003335462	0
91	1313	8.385003335462	0
91	1347	8.447010147092	0
91	1347	8.447010147092	0
91	1352	8.447232147092	0
91	1352	8.447232147092	0
91	1393	8.719886709309	0
91	1393	8.719886709309	2
91	1395	8.719886709309	2
91	1395	8.719886709309	3
91	1398	8.719886709309	3
91	1398	8.719886709309	3
91	1403	8.720108709309	3
91	1403	8.720108709309	0
91	1404	8.720108709309	0
91	1404	8.720108709309	0
91	1447	8.884781427511	0
91	1447	8.884781427511	0
91	1457	8.885003427511	0
91	1457	8.885003427511	0
91	1487	8.947010025766	0
91	1487	8.947010025766	0
91	1492	8.947232025766	0
91	1492	8.947232025766	0
91	1542	9.219886709309	0
91	1542	9.219886709309	2
91	1544	9.219886709309	2
91	1544	9.219886709309	3
91	1547	9.219886709309	3
91	1547	9.219886709309	3
91	1552	9.220108709309	3
91	1552	9.220108709309	0
91	1553	9.220108709309	0
91	1553	9.220108709309	0
91	1591	9.352570978651	0
91	1591	9.352570978651	0
91	1601	9.352792978651	0
91	1601	9.352792978651	0
91	1636	9.447009979859	0
91	1636	9.447009979859	0
91	1641	9.447231979859	0
91	1641	9.447231979859	0
91	1682	9.719886709309	0
91	1682	9.719886709309	2
91	1684	9.719886709309	2
91	1684	9.719886709309	3
91	1687	9.719886709309	3
91	1687	9.719886709309	3
91	1692	9.720108709309	3
91	1692	9.720108709309	0
91	1693	9.720108709309	0
91	1693	9.720108709309	0
91	1735	9.852570957886	0
91	1735	9.852570957886	0
91	1745	9.852792957886	0
91	1745	9.852792957886	0
91	1776	9.94701004696	0
91	1776	9.94701004696	0
91	1781	9.94723204696	0
91	1781	9.94723204696	0
91	1831	10.219886709309	0
91	1831	10.219886709309	2
91	1833	10.219886709309	2
91	1833	10.219886709309	3
91	1836	10.219886709309	3
91	1836	10.219886709309	3
91	1841	10.220108709309	3
91	1841	10.220108709309	0
91	1842	10.220108709309	0
91	1842	10.220108709309	0
91	1880	10.352570906252	0
91	1880	10.352570906252	0
91	1890	10.352792906252	0
91	1890	10.352792906252	0
91	1925	10.447010166655	0
91	1925	10.447010166655	0
91	1930	10.447232166655	0
91	1930	10.447232166655	0
91	1971	10.719886709309	0
91	1971	10.719886709309	2
91	1973	10.719886709309	2
91	1973	10.719886709309	3
91	1976	10.719886709309	3
91	1976	10.719886709309	3
91	1981	10.720108709309	3
91	1981	10.720108709309	0
91	1982	10.720108709309	0
91	1982	10.720108709309	0
91	2024	10.852570893811	0
91	2024	10.852570893811	0
91	2034	10.852792893811	0
91	2034	10.852792893811	0
91	2065	10.947010231463	0
91	2065	10.947010231463	0
91	2070	10.947232231463	0
91	2070	10.947232231463	0
91	2120	11.219886709309	0
91	2120	11.219886709309	2
91	2122	11.219886709309	2
91	2122	11.219886709309	3
91	2125	11.219886709309	3
91	2125	11.219886709309	3
91	2130	11.220108709309	3
91	2130	11.220108709309	0
91	2131	11.220108709309	0
91	2131	11.220108709309	0
91	2169	11.352570957325	0
91	2169	11.352570957325	0
91	2179	11.352792957325	0
91	2179	11.352792957325	0
91	2214	11.447010186517	0
91	2214	11.447010186517	0
91	2219	11.447232186517	0
91	2219	11.447232186517	0
91	2260	11.719886709309	0
91	2260	11.719886709309	2
91	2262	11.719886709309	2
91	2262	11.719886709309	3
91	2265	11.719886709309	3
91	2265	11.719886709309	3
91	2270	11.720108709309	3
91	2270	11.720108709309	0
91	2271	11.720108709309	0
91	2271	11.720108709309	0
91	2313	11.852571049347	0
91	2313	11.852571049347	0
91	2323	11.852793049347	0
91	2323	11.852793049347	0
91	2354	11.94701008494	0
91	2354	11.94701008494	0
91	2359	11.94723208494	0
91	2359	11.94723208494	0
91	2409	12.219886709309	0
91	2409	12.219886709309	2
91	2411	12.219886709309	2
91	2411	12.219886709309	3
91	2414	12.219886709309	3
91	2414	12.219886709309	3
91	2419	12.220108709309	3
91	2419	12.220108709309	0
91	2420	12.220108709309	0
91	2420	12.220108709309	0
91	2458	12.352571112488	0
91	2458	12.352571112488	0
91	2468	12.352793112488	0
91	2468	12.352793112488	0
91	2503	12.447010016109	0
91	2503	12.447010016109	0
91	2508	12.447232016109	0
91	2508	12.447232016109	0
91	2549	12.719886709309	0
91	2549	12.719886709309	2
91	2551	12.719886709309	2
91	2551	12.719886709309	3
91	2554	12.719886709309	3
91	2554	12.719886709309	3
91	2559	12.720108709309	3
91	2559	12.720108709309	0
91	2560	12.720108709309	0
91	2560	12.720108709309	0
91	2602	12.85257113266	0
91	2602	12.85257113266	0
91	2612	12.85279313266	0
91	2612	12.85279313266	0
91	2643	12.947010030323	0
91	2643	12.947010030323	0
91	2648	12.947232030323	0
91	2648	12.947232030323	0
91	2698	13.219886709309	0
91	2698	13.219886709309	2
91	2700	13.219886709309	2
91	2700	13.219886709309	3
91	2703	13.219886709309	3
91	2703	13.219886709309	3
91	2708	13.220108709309	3
91	2708	13.220108709309	0
91	2709	13.220108709309	0
91	2709	13.220108709309	0
91	2748	13.35257111795	0
91	2748	13.35257111795	0
91	2763	13.35279311795	0
91	2763	13.35279311795	0
91	2785	13.384781124071	0
91	2785	13.384781124071	0
91	2800	13.385003124071	0
91	2800	13.385003124071	0
91	2838	13.719886709309	0
91	2838	13.719886709309	2
91	2840	13.719886709309	2
91	2840	13.719886709309	3
91	2843	13.719886709309	3
91	2843	13.719886709309	3
91	2848	13.720108709309	3
91	2848	13.720108709309	0
91	2849	13.720108709309	0
91	2849	13.720108709309	0
91	2892	13.852571116325	0
91	2892	13.852571116325	0
91	2907	13.852793116325	0
91	2907	13.852793116325	0
91	2929	13.884781034561	0
91	2929	13.884781034561	0
91	2944	13.885003034561	0
91	2944	13.885003034561	0
91	2987	14.219886709309	0
91	2987	14.219886709309	2
91	2989	14.219886709309	2
91	2989	14.219886709309	3
91	2992	14.219886709309	3
91	2992	14.219886709309	3
91	2997	14.220108709309	3
91	2997	14.220108709309	0
91	2998	14.220108709309	0
91	2998	14.220108709309	0
91	3037	14.352571148889	0
91	3037	14.352571148889	0
91	3052	14.352793148889	0
91	3052	14.352793148889	0
91	3073	14.384780953228	0
91	3073	14.384780953228	0
91	3083	14.385002953228	0
91	3083	14.385002953228	0
91	3127	14.719886709309	0
91	3127	14.719886709309	2
91	3129	14.719886709309	2
91	3129	14.719886709309	3
91	3132	14.719886709309	3
91	3132	14.719886709309	3
91	3137	14.720108709309	3
91	3137	14.720108709309	0
91	3138	14.720108709309	0
91	3138	14.720108709309	0
91	3181	14.852571198988	0
91	3181	14.852571198988	0
91	3196	14.852793198988	0
91	3196	14.852793198988	0
91	3217	14.884780979782	0
91	3217	14.884780979782	0
91	3227	14.885002979782	0
91	3227	14.885002979782	0
91	3276	15.219886709309	0
91	3276	15.219886709309	2
91	3278	15.219886709309	2
91	3278	15.219886709309	3
91	3281	15.219886709309	3
91	3281	15.219886709309	3
91	3286	15.220108709309	3
91	3286	15.220108709309	0
91	3287	15.220108709309	0
91	3287	15.220108709309	0
91	3326	15.352571274909	0
91	3326	15.352571274909	0
91	3341	15.352793274909	0
91	3341	15.352793274909	0
91	3362	15.384781078804	0
91	3362	15.384781078804	0
91	3372	15.385003078804	0
91	3372	15.385003078804	0
91	3416	15.719886709309	0
91	3416	15.719886709309	2
91	3418	15.719886709309	2
91	3418	15.719886709309	3
91	3421	15.719886709309	3
91	3421	15.719886709309	3
91	3426	15.720108709309	3
91	3426	15.720108709309	0
91	3427	15.720108709309	0
91	3427	15.720108709309	0
91	3470	15.852571343726	0
91	3470	15.852571343726	0
91	3485	15.852793343726	0
91	3485	15.852793343726	0
91	3507	15.884781169672	0
91	3507	15.884781169672	0
91	3522	15.885003169672	0
91	3522	15.885003169672	0
91	3565	16.219886709309	0
91	3565	16.219886709309	2
91	3567	16.219886709309	2
91	3567	16.219886709309	3
91	3570	16.219886709309	3
91	3570	16.219886709309	3
91	3575	16.220108709309	3
91	3575	16.220108709309	0
91	3576	16.220108709309	0
91	3576	16.220108709309	0
91	3615	16.352571371916	0
91	3615	16.352571371916	0
91	3630	16.352793371916	0
91	3630	16.352793371916	0
91	3652	16.384781182032	0
91	3652	16.384781182032	0
91	3667	16.385003182032	0
91	3667	16.385003182032	0
91	3705	16.719886709309	0
91	3705	16.719886709309	2
91	3707	16.719886709309	2
91	3707	16.719886709309	3
91	3710	16.719886709309	3
91	3710	16.719886709309	3
91	3715	16.720108709309	3
91	3715	16.720108709309	0
91	3716	16.720108709309	0
91	3716	16.720108709309	0
91	3759	16.852571353546	0
91	3759	16.852571353546	0
91	3774	16.852793353546	0
91	3774	16.852793353546	0
91	3795	16.884781109885	0
91	3795	16.884781109885	0
91	3805	16.885003109885	0
91	3805	16.885003109885	0
91	3854	17.219886709309	0
91	3854	17.219886709309	2
91	3856	17.219886709309	2
91	3856	17.219886709309	3
91	3859	17.219886709309	3
91	3859	17.219886709309	3
91	3864	17.220108709309	3
91	3864	17.220108709309	0
91	3865	17.220108709309	0
91	3865	17.220108709309	0
91	3904	17.352571313309	0
91	3904	17.352571313309	0
91	3919	17.352793313309	0
91	3919	17.352793313309	0
91	3940	17.384781016136	0
91	3940	17.384781016136	0
91	3950	17.385003016136	0
91	3950	17.385003016136	0
91	3994	17.719886709309	0
91	3994	17.719886709309	2
91	3996	17.719886709309	2
91	3996	17.719886709309	3
91	3999	17.719886709309	3
91	3999	17.719886709309	3
91	4004	17.720108709309	3
91	4004	17.720108709309	0
91	4005	17.720108709309	0
91	4005	17.720108709309	0
91	4048	17.85257128207	0
91	4048	17.85257128207	0
91	4063	17.85279328207	0
91	4063	17.85279328207	0
91	4084	17.884780968344	0
91	4084	17.884780968344	0
91	4094	17.885002968344	0
91	4094	17.885002968344	0
91	4143	18.219886709309	0
91	4143	18.219886709309	2
91	4145	18.219886709309	2
91	4145	18.219886709309	3
91	4148	18.219886709309	3
91	4148	18.219886709309	3
91	4153	18.220108709309	3
91	4153	18.220108709309	0
91	4154	18.220108709309	0
91	4154	18.220108709309	0
91	4193	18.352571278417	0
91	4193	18.352571278417	0
91	4208	18.352793278417	0
91	4208	18.352793278417	0
91	4239	18.447010172033	0
91	4239	18.447010172033	0
91	4254	18.447232172033	0
91	4254	18.447232172033	0
91	4283	18.719886709309	0
91	4283	18.719886709309	2
91	4285	18.719886709309	2
91	4285	18.719886709309	3
91	4288	18.719886709309	3
91	4288	18.719886709309	3
91	4293	18.720108709309	3
91	4293	18.720108709309	0
91	4294	18.720108709309	0
91	4294	18.720108709309	0
91	4337	18.852571309025	0
91	4337	18.852571309025	0
91	4352	18.852793309025	0
91	4352	18.852793309025	0
91	4379	18.947010187526	0
91	4379	18.947010187526	0
91	4394	18.947232187526	0
91	4394	18.947232187526	0
91	4432	19.219886709309	0
91	4432	19.219886709309	2
91	4434	19.219886709309	2
91	4434	19.219886709309	3
91	4437	19.219886709309	3
91	4437	19.219886709309	3
91	4442	19.220108709309	3
91	4442	19.220108709309	0
91	4443	19.220108709309	0
91	4443	19.220108709309	0
91	4483	19.384781209693	0
91	4483	19.384781209693	0
91	4498	19.385003209693	0
91	4498	19.385003209693	0
91	4528	19.447010198244	0
91	4528	19.447010198244	0
91	4543	19.447232198244	0
91	4543	19.447232198244	0
91	4572	19.719886709309	0
91	4572	19.719886709309	2
91	4574	19.719886709309	2
91	4574	19.719886709309	3
91	4577	19.719886709309	3
91	4577	19.719886709309	3
91	4582	19.720108709309	3
91	4582	19.720108709309	0
91	4583	19.720108709309	0
91	4583	19.720108709309	0
91	4627	19.884781248501	0
91	4627	19.884781248501	0
91	4642	19.885003248501	0
91	4642	19.885003248501	0
91	4668	19.947010117638	0
91	4668	19.947010117638	0
91	4683	19.947232117638	0
91	4683	19.947232117638	0
91	4733	20.352570675034	0
91	4733	20.352570675034	0
91	4737	20.352792675034	0
91	4737	20.352792675034	0
91	4771	20.384780872601	0
91	4771	20.384780872601	0
91	4776	20.385002872601	0
91	4776	20.385002872601	0
91	4816	20.447010106625	0
91	4816	20.447010106625	0
91	4826	20.447232106625	0
91	4826	20.447232106625	0
91	4877	20.85257070665	0
91	4877	20.85257070665	0
91	4882	20.85279270665	0
91	4882	20.85279270665	0
91	4914	20.88478098369	0
91	4914	20.88478098369	0
91	4919	20.88500298369	0
91	4919	20.88500298369	0
91	4956	20.947010157188	0
91	4956	20.947010157188	0
91	4966	20.947232157188	0
91	4966	20.947232157188	0
92	66	1	1
92	131	2	1
92	196	3	1
92	297	4	1
92	430	5	1
92	645	6	0.066666666666667
92	934	7	1
92	1223	8	1
92	1512	9	0.78572339069471
92	1801	10	0.7208413001912
92	2090	11	1
92	2379	12	0.92530274059911
92	2668	13	1
92	2957	14	1
92	3246	15	1
92	3535	16	1
92	3824	17	1
92	4113	18	1
92	4402	19	0.94238368387508
92	4691	20	0.59949012109624
93	66	1	0.30195419082724
93	131	2	0.30195419082724
93	196	3	0.30195419082724
93	297	4	0.30195419082724
93	430	5	0.30195419082724
93	645	6	0.32258484044909
93	934	7	0.89142881575001
93	1223	8	1
93	1512	9	0.78866046782028
93	1801	10	0.81872117184017
93	2090	11	0.85147617711665
93	2379	12	0.94400618027136
93	2668	13	0.71429775313854
93	2957	14	0.79801354218242
93	3246	15	0.9308041041141
93	3535	16	0.99843106565437
93	3824	17	1
93	4113	18	0.87387736756426
93	4402	19	0.63643244682325
93	4691	20	0.53158563792415
94	67	1	1
94	132	2	1
94	197	3	1
94	298	4	1
94	431	5	1
94	646	6	0.036583811344806
94	935	7	0.77629063097514
94	1224	8	1
94	1513	9	1
94	1802	10	1
94	2091	11	1
94	2380	12	1
94	2669	13	1
94	2958	14	0.58228170809433
94	3247	15	0.68629700446144
94	3536	16	1
94	3825	17	0.99987253027406
94	4114	18	1
94	4403	19	1
94	4692	20	0.69929891650733
96	68	1	1
96	133	2	1
96	198	3	1
96	299	4	1
96	432	5	1
96	647	6	1
96	936	7	1
96	1225	8	1
96	1514	9	1
96	1803	10	0.95015933715743
96	2092	11	0.79184193753983
96	2381	12	1
96	2670	13	1
96	2959	14	0.74123645634162
96	3248	15	1
96	3537	16	1
96	3826	17	1
96	4115	18	1
96	4404	19	1
96	4693	20	1
98	69	1	1
98	134	2	1
98	199	3	1
98	300	4	1
98	433	5	1
98	648	6	0.00012746972594009
98	937	7	0.75882727852135
98	1226	8	1
98	1515	9	0.689356277884
98	1804	10	0.68642447418738
98	2093	11	0.78215423836839
98	2382	12	0.85812619502868
98	2671	13	0.73078393881453
98	2960	14	0.81695347355003
98	3249	15	0.73804971319312
98	3538	16	0.99885277246654
98	3827	17	0.83123008285532
98	4116	18	0.4842574888464
98	4405	19	0.82982791586998
98	4694	20	1
