version 2
run General-0-20161004-17:45:32-14045
attr configname General
attr datetime 20161004-17:45:32
attr experiment General
attr inifile omnetpp.ini
attr iterationvars ""
attr iterationvars2 $repetition=0
attr measurement ""
attr network Net80211test
attr processid 14045
attr repetition 0
attr replication #0
attr resultdir results
attr runnumber 0
attr seedset 0
param **.constraintAreaMaxX 600m
param **.constraintAreaMaxY 400m
param **.constraintAreaMaxZ 0m
param **.constraintAreaMinX 0m
param **.constraintAreaMinY 0m
param **.constraintAreaMinZ 0m
param **.host*.mobility.initFromDisplayString false
param **.host*.mobility.initialX "normal(300m, 50m)"
param **.host*.mobility.initialY "normal(200m, 50m)"
param **.host*.mobility.updateInterval 100ms
param **.host*.mobilityType "\"VirtualSpringMobility\""
param **.host[*].battery.flightHeight 1m
param **.host[*].battery.initialCapacity 55J
param **.host[*].battery.swapHeightFactor 0
param **.host[*].networkLayerType "\"IPv4ExtNetworkLayer\""
param **.host[*].udpType "\"UDPExt\""
param **.ip.forceBroadcast true
param **.udpApp[0].chargingStationNumber 1
param **.udpApp[0].checkRechargeTimer 1s
param **.udpApp[0].destAddresses "\"255.255.255.255\""
param **.udpApp[0].destPort 100
param **.udpApp[0].isCentralized true
param **.udpApp[0].localAddress "\"\""
param **.udpApp[0].localPort 100
param **.udpApp[0].messageLength 512B
param **.udpApp[0].receiveBroadcast true
param **.udpApp[0].schedulingType "\"ANALYTICAL\""
param **.udpApp[0].sendInterval 0.5s
param **.udpApp[0].startTime "truncnormal(5s, 1s)"
param **.wlan[*].bitrate 2Mbps
param **.wlan[*].mac.address "\"auto\""
param **.wlan[*].mac.cwMinBroadcast 31
param **.wlan[*].mac.cwMinData 7
param **.wlan[*].mac.maxQueueSize 14
param **.wlan[*].mac.retryLimit 7
param **.wlan[*].mac.rtsThresholdBytes 3000B
param **.wlan[*].macType "\"Ieee80211MacExt\""
param **.wlan[*].mgmt.frameCapacity 10
param **.wlan[*].mgmtType "\"Ieee80211MgmtAdhocExt\""
param **.wlan[*].radio.receiver.sensitivity -85dBm
param **.wlan[*].radio.receiver.snirThreshold 4dB
param **.wlan[*].radio.receiverType "\"Ieee80211ScalarReceiverExt\""
param **.wlan[*].radio.transmitter.power 100mW
param *.host[*].numUdpApps 1
param *.host[*].udpApp[*].typename "\"UDPBasicRecharge\""
param *.numHosts 4

vector 22  Net80211test.host[0].wlan[0].mac.ctn[0]  state:vector  ETV
attr interpolationmode  none
attr source  stateChanged
attr title  "contention state, vector"
vector 45  Net80211test.host[1].wlan[0].mac.ctn[0]  state:vector  ETV
attr interpolationmode  none
attr source  stateChanged
attr title  "contention state, vector"
vector 68  Net80211test.host[2].wlan[0].mac.ctn[0]  state:vector  ETV
attr interpolationmode  none
attr source  stateChanged
attr title  "contention state, vector"
vector 91  Net80211test.host[3].wlan[0].mac.ctn[0]  state:vector  ETV
attr interpolationmode  none
attr source  stateChanged
attr title  "contention state, vector"
vector 18  Net80211test.host[0].wlan[0].radio  radioMode:vector  ETV
attr interpolationmode  sample-hold
attr source  radioModeChanged
attr title  "Radio mode, vector"
vector 21  Net80211test.host[0].wlan[0].radio  radioChannel:vector  ETV
attr interpolationmode  sample-hold
attr source  radioChannelChanged
attr title  "Radio channel, vector"
vector 41  Net80211test.host[1].wlan[0].radio  radioMode:vector  ETV
attr interpolationmode  sample-hold
attr source  radioModeChanged
attr title  "Radio mode, vector"
vector 44  Net80211test.host[1].wlan[0].radio  radioChannel:vector  ETV
attr interpolationmode  sample-hold
attr source  radioChannelChanged
attr title  "Radio channel, vector"
vector 64  Net80211test.host[2].wlan[0].radio  radioMode:vector  ETV
attr interpolationmode  sample-hold
attr source  radioModeChanged
attr title  "Radio mode, vector"
vector 67  Net80211test.host[2].wlan[0].radio  radioChannel:vector  ETV
attr interpolationmode  sample-hold
attr source  radioChannelChanged
attr title  "Radio channel, vector"
vector 87  Net80211test.host[3].wlan[0].radio  radioMode:vector  ETV
attr interpolationmode  sample-hold
attr source  radioModeChanged
attr title  "Radio mode, vector"
vector 90  Net80211test.host[3].wlan[0].radio  radioChannel:vector  ETV
attr interpolationmode  sample-hold
attr source  radioChannelChanged
attr title  "Radio channel, vector"
vector 19  Net80211test.host[0].wlan[0].radio  receptionState:vector  ETV
attr interpolationmode  sample-hold
attr source  receptionStateChanged
attr title  "Radio reception state, vector"
vector 42  Net80211test.host[1].wlan[0].radio  receptionState:vector  ETV
attr interpolationmode  sample-hold
attr source  receptionStateChanged
attr title  "Radio reception state, vector"
vector 65  Net80211test.host[2].wlan[0].radio  receptionState:vector  ETV
attr interpolationmode  sample-hold
attr source  receptionStateChanged
attr title  "Radio reception state, vector"
vector 88  Net80211test.host[3].wlan[0].radio  receptionState:vector  ETV
attr interpolationmode  sample-hold
attr source  receptionStateChanged
attr title  "Radio reception state, vector"
vector 92  Net80211test.host[0].udpApp[0]  personalCoverage  ETV
vector 93  Net80211test.host[1].udpApp[0]  personalCoverage  ETV
vector 94  Net80211test.host[2].udpApp[0]  personalCoverage  ETV
vector 95  Net80211test.host[3].udpApp[0]  personalCoverage  ETV
vector 1  Net80211test.host[0].udpApp[0]  sentPk:vector(packetBytes)  ETV
attr interpolationmode  none
attr source  sentPk
attr title  "packets sent, vector(packetBytes)"
vector 4  Net80211test.host[0].udp  sentPk:vector(packetBytes)  ETV
attr interpolationmode  none
attr source  sentPk
attr title  "packets sent, vector(packetBytes)"
vector 12  Net80211test.host[0].lo0.lo  rcvdPkFromHL:vector(packetBytes)  ETV
attr interpolationmode  none
attr source  packetReceivedFromUpper
attr title  "packets received from higher layer, vector(packetBytes)"
vector 13  Net80211test.host[0].lo0.lo  passedUpPk:vector(packetBytes)  ETV
attr interpolationmode  none
attr source  packetSentToUpper
attr title  "packets passed to higher layer, vector(packetBytes)"
vector 16  Net80211test.host[0].wlan[0].mac  rcvdPkFromHL:vector(packetBytes)  ETV
attr interpolationmode  none
attr source  packetReceivedFromUpper
attr title  "packets received from higher layer, vector(packetBytes)"
vector 5  Net80211test.host[0].udp  rcvdPk:vector(packetBytes)  ETV
attr interpolationmode  none
attr source  rcvdPk
attr title  "packets received, vector(packetBytes)"
vector 6  Net80211test.host[0].udp  passedUpPk:vector(count)  ETV
attr interpolationmode  none
attr title  "packets passed up, vector(count)"
vector 0  Net80211test.host[0].udpApp[0]  rcvdPk:vector(packetBytes)  ETV
attr interpolationmode  none
attr source  rcvdPk
attr title  "packets received, vector(packetBytes)"
vector 2  Net80211test.host[0].udpApp[0]  rcvdPkLifetime:vector  ETV
attr interpolationmode  none
attr source  messageAge(rcvdPk)
attr title  "received packet lifetime, vector"
attr unit  s
vector 15  Net80211test.host[0].wlan[0].mac  sentDownPk:vector(packetBytes)  ETV
attr interpolationmode  none
attr source  packetSentToLower
attr title  "packets sent to lower layer, vector(packetBytes)"
vector 20  Net80211test.host[0].wlan[0].radio  transmissionState:vector  ETV
attr interpolationmode  sample-hold
attr source  transmissionStateChanged
attr title  "Radio transmission state, vector"
vector 40  Net80211test.host[1].wlan[0].mac  rcvdPkFromLL:vector(packetBytes)  ETV
attr interpolationmode  none
attr source  packetReceivedFromLower
attr title  "packets received from lower layer, vector(packetBytes)"
vector 37  Net80211test.host[1].wlan[0].mac  passedUpPk:vector(packetBytes)  ETV
attr interpolationmode  none
attr source  packetSentToUpper
attr title  "packets passed to higher layer, vector(packetBytes)"
vector 63  Net80211test.host[2].wlan[0].mac  rcvdPkFromLL:vector(packetBytes)  ETV
attr interpolationmode  none
attr source  packetReceivedFromLower
attr title  "packets received from lower layer, vector(packetBytes)"
vector 60  Net80211test.host[2].wlan[0].mac  passedUpPk:vector(packetBytes)  ETV
attr interpolationmode  none
attr source  packetSentToUpper
attr title  "packets passed to higher layer, vector(packetBytes)"
vector 86  Net80211test.host[3].wlan[0].mac  rcvdPkFromLL:vector(packetBytes)  ETV
attr interpolationmode  none
attr source  packetReceivedFromLower
attr title  "packets received from lower layer, vector(packetBytes)"
vector 83  Net80211test.host[3].wlan[0].mac  passedUpPk:vector(packetBytes)  ETV
attr interpolationmode  none
attr source  packetSentToUpper
attr title  "packets passed to higher layer, vector(packetBytes)"
vector 28  Net80211test.host[1].udp  rcvdPk:vector(packetBytes)  ETV
attr interpolationmode  none
attr source  rcvdPk
attr title  "packets received, vector(packetBytes)"
vector 30  Net80211test.host[1].udp  droppedPkWrongPort:vector(count)  ETV
attr interpolationmode  none
attr title  "packets dropped (wrong port), vector(count)"
vector 51  Net80211test.host[2].udp  rcvdPk:vector(packetBytes)  ETV
attr interpolationmode  none
attr source  rcvdPk
attr title  "packets received, vector(packetBytes)"
vector 53  Net80211test.host[2].udp  droppedPkWrongPort:vector(count)  ETV
attr interpolationmode  none
attr title  "packets dropped (wrong port), vector(count)"
vector 74  Net80211test.host[3].udp  rcvdPk:vector(packetBytes)  ETV
attr interpolationmode  none
attr source  rcvdPk
attr title  "packets received, vector(packetBytes)"
vector 76  Net80211test.host[3].udp  droppedPkWrongPort:vector(count)  ETV
attr interpolationmode  none
attr title  "packets dropped (wrong port), vector(count)"
vector 70  Net80211test.host[3].udpApp[0]  sentPk:vector(packetBytes)  ETV
attr interpolationmode  none
attr source  sentPk
attr title  "packets sent, vector(packetBytes)"
vector 73  Net80211test.host[3].udp  sentPk:vector(packetBytes)  ETV
attr interpolationmode  none
attr source  sentPk
attr title  "packets sent, vector(packetBytes)"
vector 81  Net80211test.host[3].lo0.lo  rcvdPkFromHL:vector(packetBytes)  ETV
attr interpolationmode  none
attr source  packetReceivedFromUpper
attr title  "packets received from higher layer, vector(packetBytes)"
vector 82  Net80211test.host[3].lo0.lo  passedUpPk:vector(packetBytes)  ETV
attr interpolationmode  none
attr source  packetSentToUpper
attr title  "packets passed to higher layer, vector(packetBytes)"
vector 85  Net80211test.host[3].wlan[0].mac  rcvdPkFromHL:vector(packetBytes)  ETV
attr interpolationmode  none
attr source  packetReceivedFromUpper
attr title  "packets received from higher layer, vector(packetBytes)"
vector 75  Net80211test.host[3].udp  passedUpPk:vector(count)  ETV
attr interpolationmode  none
attr title  "packets passed up, vector(count)"
vector 69  Net80211test.host[3].udpApp[0]  rcvdPk:vector(packetBytes)  ETV
attr interpolationmode  none
attr source  rcvdPk
attr title  "packets received, vector(packetBytes)"
vector 71  Net80211test.host[3].udpApp[0]  rcvdPkLifetime:vector  ETV
attr interpolationmode  none
attr source  messageAge(rcvdPk)
attr title  "received packet lifetime, vector"
attr unit  s
vector 84  Net80211test.host[3].wlan[0].mac  sentDownPk:vector(packetBytes)  ETV
attr interpolationmode  none
attr source  packetSentToLower
attr title  "packets sent to lower layer, vector(packetBytes)"
vector 89  Net80211test.host[3].wlan[0].radio  transmissionState:vector  ETV
attr interpolationmode  sample-hold
attr source  transmissionStateChanged
attr title  "Radio transmission state, vector"
vector 17  Net80211test.host[0].wlan[0].mac  rcvdPkFromLL:vector(packetBytes)  ETV
attr interpolationmode  none
attr source  packetReceivedFromLower
attr title  "packets received from lower layer, vector(packetBytes)"
vector 14  Net80211test.host[0].wlan[0].mac  passedUpPk:vector(packetBytes)  ETV
attr interpolationmode  none
attr source  packetSentToUpper
attr title  "packets passed to higher layer, vector(packetBytes)"
vector 24  Net80211test.host[1].udpApp[0]  sentPk:vector(packetBytes)  ETV
attr interpolationmode  none
attr source  sentPk
attr title  "packets sent, vector(packetBytes)"
vector 27  Net80211test.host[1].udp  sentPk:vector(packetBytes)  ETV
attr interpolationmode  none
attr source  sentPk
attr title  "packets sent, vector(packetBytes)"
vector 35  Net80211test.host[1].lo0.lo  rcvdPkFromHL:vector(packetBytes)  ETV
attr interpolationmode  none
attr source  packetReceivedFromUpper
attr title  "packets received from higher layer, vector(packetBytes)"
vector 36  Net80211test.host[1].lo0.lo  passedUpPk:vector(packetBytes)  ETV
attr interpolationmode  none
attr source  packetSentToUpper
attr title  "packets passed to higher layer, vector(packetBytes)"
vector 39  Net80211test.host[1].wlan[0].mac  rcvdPkFromHL:vector(packetBytes)  ETV
attr interpolationmode  none
attr source  packetReceivedFromUpper
attr title  "packets received from higher layer, vector(packetBytes)"
vector 29  Net80211test.host[1].udp  passedUpPk:vector(count)  ETV
attr interpolationmode  none
attr title  "packets passed up, vector(count)"
vector 23  Net80211test.host[1].udpApp[0]  rcvdPk:vector(packetBytes)  ETV
attr interpolationmode  none
attr source  rcvdPk
attr title  "packets received, vector(packetBytes)"
vector 25  Net80211test.host[1].udpApp[0]  rcvdPkLifetime:vector  ETV
attr interpolationmode  none
attr source  messageAge(rcvdPk)
attr title  "received packet lifetime, vector"
attr unit  s
vector 38  Net80211test.host[1].wlan[0].mac  sentDownPk:vector(packetBytes)  ETV
attr interpolationmode  none
attr source  packetSentToLower
attr title  "packets sent to lower layer, vector(packetBytes)"
vector 43  Net80211test.host[1].wlan[0].radio  transmissionState:vector  ETV
attr interpolationmode  sample-hold
attr source  transmissionStateChanged
attr title  "Radio transmission state, vector"
vector 52  Net80211test.host[2].udp  passedUpPk:vector(count)  ETV
attr interpolationmode  none
attr title  "packets passed up, vector(count)"
vector 46  Net80211test.host[2].udpApp[0]  rcvdPk:vector(packetBytes)  ETV
attr interpolationmode  none
attr source  rcvdPk
attr title  "packets received, vector(packetBytes)"
vector 48  Net80211test.host[2].udpApp[0]  rcvdPkLifetime:vector  ETV
attr interpolationmode  none
attr source  messageAge(rcvdPk)
attr title  "received packet lifetime, vector"
attr unit  s
vector 47  Net80211test.host[2].udpApp[0]  sentPk:vector(packetBytes)  ETV
attr interpolationmode  none
attr source  sentPk
attr title  "packets sent, vector(packetBytes)"
vector 50  Net80211test.host[2].udp  sentPk:vector(packetBytes)  ETV
attr interpolationmode  none
attr source  sentPk
attr title  "packets sent, vector(packetBytes)"
vector 58  Net80211test.host[2].lo0.lo  rcvdPkFromHL:vector(packetBytes)  ETV
attr interpolationmode  none
attr source  packetReceivedFromUpper
attr title  "packets received from higher layer, vector(packetBytes)"
vector 59  Net80211test.host[2].lo0.lo  passedUpPk:vector(packetBytes)  ETV
attr interpolationmode  none
attr source  packetSentToUpper
attr title  "packets passed to higher layer, vector(packetBytes)"
vector 62  Net80211test.host[2].wlan[0].mac  rcvdPkFromHL:vector(packetBytes)  ETV
attr interpolationmode  none
attr source  packetReceivedFromUpper
attr title  "packets received from higher layer, vector(packetBytes)"
vector 61  Net80211test.host[2].wlan[0].mac  sentDownPk:vector(packetBytes)  ETV
attr interpolationmode  none
attr source  packetSentToLower
attr title  "packets sent to lower layer, vector(packetBytes)"
vector 66  Net80211test.host[2].wlan[0].radio  transmissionState:vector  ETV
attr interpolationmode  sample-hold
attr source  transmissionStateChanged
attr title  "Radio transmission state, vector"
0	379	3.947009828233	512
0	466	4.447009828233	512
0	548	4.947009828233	512
0	635	5.447009828233	512
0	723	5.720108709309	512
0	777	5.885002786212	512
0	796	5.947009828233	512
0	892	6.220108775948	512
0	938	6.385002963636	512
0	961	6.447009828233	512
0	1052	6.720108955999	512
0	1102	6.885003281265	512
0	1121	6.947009828233	512
0	1217	7.220109089279	512
0	1263	7.385003519329	512
0	1286	7.447009828233	512
0	1377	7.720109144434	512
0	1427	7.885003634363	512
0	1446	7.947009828233	512
0	1536	8.220109084493	512
0	1588	8.385003651111	512
0	1611	8.447009828233	512
0	1690	8.720108959007	512
0	1752	8.885003625714	512
0	1771	8.947009828233	512
0	1855	9.220108868365	512
0	1912	9.35279311947	512
0	1936	9.447009828233	512
0	2015	9.720108884257	512
0	2076	9.852793143388	512
0	2096	9.947009828233	512
0	2192	10.220108992572	512
0	2237	10.352793200261	512
0	2261	10.447009828233	512
0	2352	10.720109095146	512
0	2401	10.852793256839	512
0	2421	10.947009828233	512
0	2517	11.220109101664	512
0	2562	11.352793285698	512
0	2586	11.447009828233	512
0	2671	11.720109014086	512
0	2726	11.852793277227	512
0	2746	11.947009828233	512
0	2830	12.220108920563	512
0	2887	12.35279326032	512
0	2911	12.447009828233	512
0	2990	12.720108893618	512
0	3051	12.852793266991	512
0	3071	12.947009828233	512
0	4785	18.220109047351	512
0	4831	18.35279293738	512
0	4861	18.447009828233	512
0	4940	18.720109061031	512
0	4995	18.852792954016	512
0	5021	18.947009828233	512
0	5105	19.220109075942	512
0	5157	19.385002840445	512
0	5186	19.447009828233	512
0	5265	19.720109052265	512
0	5321	19.885002944587	512
0	5346	19.947009828233	512
0	5451	20.352792936766	512
0	5488	20.385003140351	512
0	5511	20.447009828233	512
0	5615	20.852792967622	512
0	5652	20.885003309668	512
0	5671	20.947009828233	512
1	368	3.947009828233	512
1	457	4.447009828233	512
1	539	4.947009828233	512
1	626	5.447009828233	512
1	787	5.947009828233	512
1	952	6.447009828233	512
1	1112	6.947009828233	512
1	1277	7.447009828233	512
1	1437	7.947009828233	512
1	1602	8.447009828233	512
1	1762	8.947009828233	512
1	1927	9.447009828233	512
1	2087	9.947009828233	512
1	2252	10.447009828233	512
1	2412	10.947009828233	512
1	2577	11.447009828233	512
1	2737	11.947009828233	512
1	2902	12.447009828233	512
1	3062	12.947009828233	512
1	4852	18.447009828233	512
1	5012	18.947009828233	512
1	5177	19.447009828233	512
1	5337	19.947009828233	512
1	5502	20.447009828233	512
1	5662	20.947009828233	512
2	379	3.947009828233	0
2	466	4.447009828233	0
2	548	4.947009828233	0
2	635	5.447009828233	0
2	723	5.720108709309	0.000222
2	777	5.885002786212	0.0002220038
2	796	5.947009828233	0
2	892	6.220108775948	0.000222066639
2	938	6.385002963636	0.000222181224
2	961	6.447009828233	0
2	1052	6.720108955999	0.00022224669
2	1102	6.885003281265	0.000222498853
2	1121	6.947009828233	0
2	1217	7.220109089279	0.00022237997
2	1263	7.385003519329	0.000222736917
2	1286	7.447009828233	0
2	1377	7.720109144434	0.000222435125
2	1427	7.885003634363	0.000222851951
2	1446	7.947009828233	0
2	1536	8.220109084493	0.000222375184
2	1588	8.385003651111	0.000222868699
2	1611	8.447009828233	0
2	1690	8.720108959007	0.000222249698
2	1752	8.885003625714	0.000222843302
2	1771	8.947009828233	0
2	1855	9.220108868365	0.000222159056
2	1912	9.35279311947	0.000222444436
2	1936	9.447009828233	0
2	2015	9.720108884257	0.000222174948
2	2076	9.852793143388	0.000222468354
2	2096	9.947009828233	0
2	2192	10.220108992572	0.000222283263
2	2237	10.352793200261	0.000222525227
2	2261	10.447009828233	0
2	2352	10.720109095146	0.000222385837
2	2401	10.852793256839	0.000222581805
2	2421	10.947009828233	0
2	2517	11.220109101664	0.000222392355
2	2562	11.352793285698	0.000222610664
2	2586	11.447009828233	0
2	2671	11.720109014086	0.000222304777
2	2726	11.852793277227	0.000222602193
2	2746	11.947009828233	0
2	2830	12.220108920563	0.000222211254
2	2887	12.35279326032	0.000222585286
2	2911	12.447009828233	0
2	2990	12.720108893618	0.000222184309
2	3051	12.852793266991	0.000222591957
2	3071	12.947009828233	0
2	4785	18.220109047351	0.000222338042
2	4831	18.35279293738	0.000222262346
2	4861	18.447009828233	0
2	4940	18.720109061031	0.000222351722
2	4995	18.852792954016	0.000222278982
2	5021	18.947009828233	0
2	5105	19.220109075942	0.000222366633
2	5157	19.385002840445	0.000222058033
2	5186	19.447009828233	0
2	5265	19.720109052265	0.000222342956
2	5321	19.885002944587	0.000222162175
2	5346	19.947009828233	0
2	5451	20.352792936766	0.000222261732
2	5488	20.385003140351	0.000222357939
2	5511	20.447009828233	0
2	5615	20.852792967622	0.000222292588
2	5652	20.885003309668	0.000222527256
2	5671	20.947009828233	0
4	371	3.947009828233	520
4	458	4.447009828233	520
4	540	4.947009828233	520
4	627	5.447009828233	520
4	788	5.947009828233	520
4	953	6.447009828233	520
4	1113	6.947009828233	520
4	1278	7.447009828233	520
4	1438	7.947009828233	520
4	1603	8.447009828233	520
4	1763	8.947009828233	520
4	1928	9.447009828233	520
4	2088	9.947009828233	520
4	2253	10.447009828233	520
4	2413	10.947009828233	520
4	2578	11.447009828233	520
4	2738	11.947009828233	520
4	2903	12.447009828233	520
4	3063	12.947009828233	520
4	4853	18.447009828233	520
4	5013	18.947009828233	520
4	5178	19.447009828233	520
4	5338	19.947009828233	520
4	5503	20.447009828233	520
4	5663	20.947009828233	520
5	377	3.947009828233	520
5	464	4.447009828233	520
5	546	4.947009828233	520
5	633	5.447009828233	520
5	720	5.720108709309	520
5	776	5.885002786212	520
5	794	5.947009828233	520
5	891	6.220108775948	520
5	937	6.385002963636	520
5	959	6.447009828233	520
5	1051	6.720108955999	520
5	1101	6.885003281265	520
5	1119	6.947009828233	520
5	1216	7.220109089279	520
5	1262	7.385003519329	520
5	1284	7.447009828233	520
5	1376	7.720109144434	520
5	1426	7.885003634363	520
5	1444	7.947009828233	520
5	1535	8.220109084493	520
5	1587	8.385003651111	520
5	1609	8.447009828233	520
5	1689	8.720108959007	520
5	1751	8.885003625714	520
5	1769	8.947009828233	520
5	1854	9.220108868365	520
5	1911	9.35279311947	520
5	1934	9.447009828233	520
5	2014	9.720108884257	520
5	2075	9.852793143388	520
5	2094	9.947009828233	520
5	2191	10.220108992572	520
5	2236	10.352793200261	520
5	2259	10.447009828233	520
5	2351	10.720109095146	520
5	2400	10.852793256839	520
5	2419	10.947009828233	520
5	2516	11.220109101664	520
5	2561	11.352793285698	520
5	2584	11.447009828233	520
5	2670	11.720109014086	520
5	2725	11.852793277227	520
5	2744	11.947009828233	520
5	2829	12.220108920563	520
5	2886	12.35279326032	520
5	2909	12.447009828233	520
5	2989	12.720108893618	520
5	3050	12.852793266991	520
5	3069	12.947009828233	520
5	3158	13.220109060141	520
5	3199	13.352792773702	520
5	3236	13.385002783303	520
5	3320	13.720109031609	520
5	3363	13.852792805295	520
5	3400	13.885002840933	520
5	3485	14.220109000331	520
5	3524	14.352792866533	520
5	3561	14.385002909943	520
5	3645	14.720109003635	520
5	3688	14.852792903831	520
5	3725	14.885002920842	520
5	3810	15.220109051811	520
5	3849	15.352792925609	520
5	3886	15.385002901283	520
5	3970	15.7201091118	520
5	4013	15.852792937482	520
5	4050	15.885002892772	520
5	4135	16.220109143141	520
5	4174	16.352792943033	520
5	4211	16.38500289232	520
5	4295	16.720109129616	520
5	4338	16.85279294455	520
5	4375	16.885002899651	520
5	4460	17.220109090088	520
5	4499	17.352792943491	520
5	4536	17.385002925238	520
5	4620	17.720109055874	520
5	4663	17.852792940789	520
5	4700	17.885002938598	520
5	4783	18.220109047351	520
5	4830	18.35279293738	520
5	4859	18.447009828233	520
5	4939	18.720109061031	520
5	4994	18.852792954016	520
5	5019	18.947009828233	520
5	5104	19.220109075942	520
5	5156	19.385002840445	520
5	5184	19.447009828233	520
5	5264	19.720109052265	520
5	5320	19.885002944587	520
5	5344	19.947009828233	520
5	5450	20.352792936766	520
5	5487	20.385003140351	520
5	5509	20.447009828233	520
5	5614	20.852792967622	520
5	5651	20.885003309668	520
5	5669	20.947009828233	520
6	377	3.947009828233	1
6	464	4.447009828233	2
6	546	4.947009828233	3
6	633	5.447009828233	4
6	720	5.720108709309	5
6	776	5.885002786212	6
6	794	5.947009828233	7
6	891	6.220108775948	8
6	937	6.385002963636	9
6	959	6.447009828233	10
6	1051	6.720108955999	11
6	1101	6.885003281265	12
6	1119	6.947009828233	13
6	1216	7.220109089279	14
6	1262	7.385003519329	15
6	1284	7.447009828233	16
6	1376	7.720109144434	17
6	1426	7.885003634363	18
6	1444	7.947009828233	19
6	1535	8.220109084493	20
6	1587	8.385003651111	21
6	1609	8.447009828233	22
6	1689	8.720108959007	23
6	1751	8.885003625714	24
6	1769	8.947009828233	25
6	1854	9.220108868365	26
6	1911	9.35279311947	27
6	1934	9.447009828233	28
6	2014	9.720108884257	29
6	2075	9.852793143388	30
6	2094	9.947009828233	31
6	2191	10.220108992572	32
6	2236	10.352793200261	33
6	2259	10.447009828233	34
6	2351	10.720109095146	35
6	2400	10.852793256839	36
6	2419	10.947009828233	37
6	2516	11.220109101664	38
6	2561	11.352793285698	39
6	2584	11.447009828233	40
6	2670	11.720109014086	41
6	2725	11.852793277227	42
6	2744	11.947009828233	43
6	2829	12.220108920563	44
6	2886	12.35279326032	45
6	2909	12.447009828233	46
6	2989	12.720108893618	47
6	3050	12.852793266991	48
6	3069	12.947009828233	49
6	3158	13.220109060141	50
6	3199	13.352792773702	51
6	3236	13.385002783303	52
6	3320	13.720109031609	53
6	3363	13.852792805295	54
6	3400	13.885002840933	55
6	3485	14.220109000331	56
6	3524	14.352792866533	57
6	3561	14.385002909943	58
6	3645	14.720109003635	59
6	3688	14.852792903831	60
6	3725	14.885002920842	61
6	3810	15.220109051811	62
6	3849	15.352792925609	63
6	3886	15.385002901283	64
6	3970	15.7201091118	65
6	4013	15.852792937482	66
6	4050	15.885002892772	67
6	4135	16.220109143141	68
6	4174	16.352792943033	69
6	4211	16.38500289232	70
6	4295	16.720109129616	71
6	4338	16.85279294455	72
6	4375	16.885002899651	73
6	4460	17.220109090088	74
6	4499	17.352792943491	75
6	4536	17.385002925238	76
6	4620	17.720109055874	77
6	4663	17.852792940789	78
6	4700	17.885002938598	79
6	4783	18.220109047351	80
6	4830	18.35279293738	81
6	4859	18.447009828233	82
6	4939	18.720109061031	83
6	4994	18.852792954016	84
6	5019	18.947009828233	85
6	5104	19.220109075942	86
6	5156	19.385002840445	87
6	5184	19.447009828233	88
6	5264	19.720109052265	89
6	5320	19.885002944587	90
6	5344	19.947009828233	91
6	5450	20.352792936766	92
6	5487	20.385003140351	93
6	5509	20.447009828233	94
6	5614	20.852792967622	95
6	5651	20.885003309668	96
6	5669	20.947009828233	97
12	373	3.947009828233	540
12	460	4.447009828233	540
12	542	4.947009828233	540
12	629	5.447009828233	540
12	790	5.947009828233	540
12	955	6.447009828233	540
12	1115	6.947009828233	540
12	1280	7.447009828233	540
12	1440	7.947009828233	540
12	1605	8.447009828233	540
12	1765	8.947009828233	540
12	1930	9.447009828233	540
12	2090	9.947009828233	540
12	2255	10.447009828233	540
12	2415	10.947009828233	540
12	2580	11.447009828233	540
12	2740	11.947009828233	540
12	2905	12.447009828233	540
12	3065	12.947009828233	540
12	4855	18.447009828233	540
12	5015	18.947009828233	540
12	5180	19.447009828233	540
12	5340	19.947009828233	540
12	5505	20.447009828233	540
12	5665	20.947009828233	540
13	373	3.947009828233	540
13	460	4.447009828233	540
13	542	4.947009828233	540
13	629	5.447009828233	540
13	790	5.947009828233	540
13	955	6.447009828233	540
13	1115	6.947009828233	540
13	1280	7.447009828233	540
13	1440	7.947009828233	540
13	1605	8.447009828233	540
13	1765	8.947009828233	540
13	1930	9.447009828233	540
13	2090	9.947009828233	540
13	2255	10.447009828233	540
13	2415	10.947009828233	540
13	2580	11.447009828233	540
13	2740	11.947009828233	540
13	2905	12.447009828233	540
13	3065	12.947009828233	540
13	4855	18.447009828233	540
13	5015	18.947009828233	540
13	5180	19.447009828233	540
13	5340	19.947009828233	540
13	5505	20.447009828233	540
13	5665	20.947009828233	540
14	711	5.720108709309	576
14	773	5.885002786212	576
14	888	6.220108775948	576
14	934	6.385002963636	576
14	1048	6.720108955999	576
14	1098	6.885003281265	576
14	1213	7.220109089279	576
14	1259	7.385003519329	576
14	1373	7.720109144434	576
14	1423	7.885003634363	576
14	1532	8.220109084493	576
14	1584	8.385003651111	576
14	1686	8.720108959007	576
14	1748	8.885003625714	576
14	1851	9.220108868365	576
14	1908	9.35279311947	576
14	2011	9.720108884257	576
14	2072	9.852793143388	576
14	2188	10.220108992572	576
14	2233	10.352793200261	576
14	2348	10.720109095146	576
14	2397	10.852793256839	576
14	2513	11.220109101664	576
14	2558	11.352793285698	576
14	2667	11.720109014086	576
14	2722	11.852793277227	576
14	2826	12.220108920563	576
14	2883	12.35279326032	576
14	2986	12.720108893618	576
14	3047	12.852793266991	576
14	3152	13.220109060141	576
14	3196	13.352792773702	576
14	3233	13.385002783303	576
14	3317	13.720109031609	576
14	3360	13.852792805295	576
14	3397	13.885002840933	576
14	3482	14.220109000331	576
14	3521	14.352792866533	576
14	3558	14.385002909943	576
14	3642	14.720109003635	576
14	3685	14.852792903831	576
14	3722	14.885002920842	576
14	3807	15.220109051811	576
14	3846	15.352792925609	576
14	3883	15.385002901283	576
14	3967	15.7201091118	576
14	4010	15.852792937482	576
14	4047	15.885002892772	576
14	4132	16.220109143141	576
14	4171	16.352792943033	576
14	4208	16.38500289232	576
14	4292	16.720109129616	576
14	4335	16.85279294455	576
14	4372	16.885002899651	576
14	4457	17.220109090088	576
14	4496	17.352792943491	576
14	4533	17.385002925238	576
14	4617	17.720109055874	576
14	4660	17.852792940789	576
14	4697	17.885002938598	576
14	4777	18.220109047351	576
14	4827	18.35279293738	576
14	4936	18.720109061031	576
14	4991	18.852792954016	576
14	5101	19.220109075942	576
14	5153	19.385002840445	576
14	5261	19.720109052265	576
14	5317	19.885002944587	576
14	5447	20.352792936766	576
14	5484	20.385003140351	576
14	5611	20.852792967622	576
14	5648	20.885003309668	576
15	380	3.947009828233	576
15	467	4.447009828233	576
15	549	4.947009828233	576
15	636	5.447009828233	576
15	797	5.947009828233	576
15	962	6.447009828233	576
15	1122	6.947009828233	576
15	1287	7.447009828233	576
15	1447	7.947009828233	576
15	1612	8.447009828233	576
15	1772	8.947009828233	576
15	1937	9.447009828233	576
15	2097	9.947009828233	576
15	2262	10.447009828233	576
15	2422	10.947009828233	576
15	2587	11.447009828233	576
15	2747	11.947009828233	576
15	2912	12.447009828233	576
15	3072	12.947009828233	576
15	4862	18.447009828233	576
15	5022	18.947009828233	576
15	5187	19.447009828233	576
15	5347	19.947009828233	576
15	5512	20.447009828233	576
15	5672	20.947009828233	576
16	376	3.947009828233	576
16	463	4.447009828233	576
16	545	4.947009828233	576
16	632	5.447009828233	576
16	793	5.947009828233	576
16	958	6.447009828233	576
16	1118	6.947009828233	576
16	1283	7.447009828233	576
16	1443	7.947009828233	576
16	1608	8.447009828233	576
16	1768	8.947009828233	576
16	1933	9.447009828233	576
16	2093	9.947009828233	576
16	2258	10.447009828233	576
16	2418	10.947009828233	576
16	2583	11.447009828233	576
16	2743	11.947009828233	576
16	2908	12.447009828233	576
16	3068	12.947009828233	576
16	4858	18.447009828233	576
16	5018	18.947009828233	576
16	5183	19.447009828233	576
16	5343	19.947009828233	576
16	5508	20.447009828233	576
16	5668	20.947009828233	576
17	711	5.720108709309	576
17	773	5.885002786212	576
17	888	6.220108775948	576
17	934	6.385002963636	576
17	1048	6.720108955999	576
17	1098	6.885003281265	576
17	1213	7.220109089279	576
17	1259	7.385003519329	576
17	1373	7.720109144434	576
17	1423	7.885003634363	576
17	1532	8.220109084493	576
17	1584	8.385003651111	576
17	1686	8.720108959007	576
17	1748	8.885003625714	576
17	1851	9.220108868365	576
17	1908	9.35279311947	576
17	2011	9.720108884257	576
17	2072	9.852793143388	576
17	2188	10.220108992572	576
17	2233	10.352793200261	576
17	2348	10.720109095146	576
17	2397	10.852793256839	576
17	2513	11.220109101664	576
17	2558	11.352793285698	576
17	2667	11.720109014086	576
17	2722	11.852793277227	576
17	2826	12.220108920563	576
17	2883	12.35279326032	576
17	2986	12.720108893618	576
17	3047	12.852793266991	576
17	3152	13.220109060141	576
17	3196	13.352792773702	576
17	3233	13.385002783303	576
17	3317	13.720109031609	576
17	3360	13.852792805295	576
17	3397	13.885002840933	576
17	3482	14.220109000331	576
17	3521	14.352792866533	576
17	3558	14.385002909943	576
17	3642	14.720109003635	576
17	3685	14.852792903831	576
17	3722	14.885002920842	576
17	3807	15.220109051811	576
17	3846	15.352792925609	576
17	3883	15.385002901283	576
17	3967	15.7201091118	576
17	4010	15.852792937482	576
17	4047	15.885002892772	576
17	4132	16.220109143141	576
17	4171	16.352792943033	576
17	4208	16.38500289232	576
17	4292	16.720109129616	576
17	4335	16.85279294455	576
17	4372	16.885002899651	576
17	4457	17.220109090088	576
17	4496	17.352792943491	576
17	4533	17.385002925238	576
17	4617	17.720109055874	576
17	4660	17.852792940789	576
17	4697	17.885002938598	576
17	4777	18.220109047351	576
17	4827	18.35279293738	576
17	4936	18.720109061031	576
17	4991	18.852792954016	576
17	5101	19.220109075942	576
17	5153	19.385002840445	576
17	5261	19.720109052265	576
17	5317	19.885002944587	576
17	5447	20.352792936766	576
17	5484	20.385003140351	576
17	5611	20.852792967622	576
17	5648	20.885003309668	576
18	0	0	0
18	0	0	2
18	381	3.947009828233	3
18	390	3.947231828233	2
18	468	4.447009828233	3
18	477	4.447231828233	2
18	550	4.947009828233	3
18	559	4.947231828233	2
18	637	5.447009828233	3
18	646	5.447231828233	2
18	798	5.947009828233	3
18	804	5.947231828233	2
18	963	6.447009828233	3
18	969	6.447231828233	2
18	1123	6.947009828233	3
18	1129	6.947231828233	2
18	1288	7.447009828233	3
18	1294	7.447231828233	2
18	1448	7.947009828233	3
18	1454	7.947231828233	2
18	1613	8.447009828233	3
18	1619	8.447231828233	2
18	1773	8.947009828233	3
18	1779	8.947231828233	2
18	1938	9.447009828233	3
18	1944	9.447231828233	2
18	2098	9.947009828233	3
18	2104	9.947231828233	2
18	2263	10.447009828233	3
18	2269	10.447231828233	2
18	2423	10.947009828233	3
18	2429	10.947231828233	2
18	2588	11.447009828233	3
18	2594	11.447231828233	2
18	2748	11.947009828233	3
18	2754	11.947231828233	2
18	2913	12.447009828233	3
18	2919	12.447231828233	2
18	3073	12.947009828233	3
18	3079	12.947231828233	2
18	4863	18.447009828233	3
18	4869	18.447231828233	2
18	5023	18.947009828233	3
18	5029	18.947231828233	2
18	5188	19.447009828233	3
18	5194	19.447231828233	2
18	5348	19.947009828233	3
18	5354	19.947231828233	2
18	5513	20.447009828233	3
18	5519	20.447231828233	2
18	5673	20.947009828233	3
18	5679	20.947231828233	2
19	0	0	1
19	381	3.947009828233	0
19	390	3.947231828233	1
19	468	4.447009828233	0
19	477	4.447231828233	1
19	550	4.947009828233	0
19	559	4.947231828233	1
19	637	5.447009828233	0
19	646	5.447231828233	1
19	703	5.719886709309	3
19	707	5.720108709309	1
19	757	5.884780786212	3
19	772	5.885002786212	1
19	798	5.947009828233	0
19	804	5.947231828233	1
19	872	6.219886775948	3
19	887	6.220108775948	1
19	918	6.384780963636	3
19	933	6.385002963636	1
19	963	6.447009828233	0
19	969	6.447231828233	1
19	1032	6.719886955999	3
19	1047	6.720108955999	1
19	1082	6.884781281265	3
19	1097	6.885003281265	1
19	1123	6.947009828233	0
19	1129	6.947231828233	1
19	1197	7.219887089279	3
19	1212	7.220109089279	1
19	1243	7.384781519329	3
19	1258	7.385003519329	1
19	1288	7.447009828233	0
19	1294	7.447231828233	1
19	1357	7.719887144434	3
19	1372	7.720109144434	1
19	1407	7.884781634363	3
19	1422	7.885003634363	1
19	1448	7.947009828233	0
19	1454	7.947231828233	1
19	1521	8.219887084493	3
19	1531	8.220109084493	1
19	1568	8.384781651111	3
19	1583	8.385003651111	1
19	1613	8.447009828233	0
19	1619	8.447231828233	1
19	1680	8.719886959007	3
19	1685	8.720108959007	1
19	1732	8.884781625714	3
19	1747	8.885003625714	1
19	1773	8.947009828233	0
19	1779	8.947231828233	1
19	1845	9.219886868365	3
19	1850	9.220108868365	1
19	1892	9.35257111947	3
19	1907	9.35279311947	1
19	1938	9.447009828233	0
19	1944	9.447231828233	1
19	2005	9.719886884257	3
19	2010	9.720108884257	1
19	2056	9.852571143388	3
19	2071	9.852793143388	1
19	2098	9.947009828233	0
19	2104	9.947231828233	1
19	2172	10.219886992572	3
19	2187	10.220108992572	1
19	2217	10.352571200261	3
19	2232	10.352793200261	1
19	2263	10.447009828233	0
19	2269	10.447231828233	1
19	2332	10.719887095146	3
19	2347	10.720109095146	1
19	2381	10.852571256839	3
19	2396	10.852793256839	1
19	2423	10.947009828233	0
19	2429	10.947231828233	1
19	2497	11.219887101664	3
19	2512	11.220109101664	1
19	2542	11.352571285698	3
19	2557	11.352793285698	1
19	2588	11.447009828233	0
19	2594	11.447231828233	1
19	2656	11.719887014086	3
19	2666	11.720109014086	1
19	2706	11.852571277227	3
19	2721	11.852793277227	1
19	2748	11.947009828233	0
19	2754	11.947231828233	1
19	2820	12.219886920563	3
19	2825	12.220108920563	1
19	2867	12.35257126032	3
19	2882	12.35279326032	1
19	2913	12.447009828233	0
19	2919	12.447231828233	1
19	2980	12.719886893618	3
19	2985	12.720108893618	1
19	3031	12.852571266991	3
19	3046	12.852793266991	1
19	3073	12.947009828233	0
19	3079	12.947231828233	1
19	3145	13.219887060141	3
19	3150	13.220109060141	1
19	3190	13.352570773702	3
19	3195	13.352792773702	1
19	3227	13.384780783303	3
19	3232	13.385002783303	1
19	3306	13.719887031609	3
19	3316	13.720109031609	1
19	3354	13.852570805295	3
19	3359	13.852792805295	1
19	3391	13.884780840933	3
19	3396	13.885002840933	1
19	3471	14.219887000331	3
19	3481	14.220109000331	1
19	3515	14.352570866533	3
19	3520	14.352792866533	1
19	3552	14.384780909943	3
19	3557	14.385002909943	1
19	3631	14.719887003635	3
19	3641	14.720109003635	1
19	3679	14.852570903831	3
19	3684	14.852792903831	1
19	3716	14.884780920842	3
19	3721	14.885002920842	1
19	3796	15.219887051811	3
19	3806	15.220109051811	1
19	3840	15.352570925609	3
19	3845	15.352792925609	1
19	3877	15.384780901283	3
19	3882	15.385002901283	1
19	3956	15.7198871118	3
19	3966	15.7201091118	1
19	4004	15.852570937482	3
19	4009	15.852792937482	1
19	4041	15.884780892772	3
19	4046	15.885002892772	1
19	4121	16.219887143141	3
19	4131	16.220109143141	1
19	4165	16.352570943033	3
19	4170	16.352792943033	1
19	4202	16.38478089232	3
19	4207	16.38500289232	1
19	4281	16.719887129616	3
19	4291	16.720109129616	1
19	4329	16.85257094455	3
19	4334	16.85279294455	1
19	4366	16.884780899651	3
19	4371	16.885002899651	1
19	4446	17.219887090088	3
19	4456	17.220109090088	1
19	4490	17.352570943491	3
19	4495	17.352792943491	1
19	4527	17.384780925238	3
19	4532	17.385002925238	1
19	4606	17.719887055874	3
19	4616	17.720109055874	1
19	4654	17.852570940789	3
19	4659	17.852792940789	1
19	4691	17.884780938598	3
19	4696	17.885002938598	1
19	4770	18.219887047351	3
19	4775	18.220109047351	1
19	4816	18.35257093738	3
19	4826	18.35279293738	1
19	4863	18.447009828233	0
19	4869	18.447231828233	1
19	4930	18.719887061031	3
19	4935	18.720109061031	1
19	4980	18.852570954016	3
19	4990	18.852792954016	1
19	5023	18.947009828233	0
19	5029	18.947231828233	1
19	5095	19.219887075942	3
19	5100	19.220109075942	1
19	5142	19.384780840445	3
19	5152	19.385002840445	1
19	5188	19.447009828233	0
19	5194	19.447231828233	1
19	5255	19.719887052265	3
19	5260	19.720109052265	1
19	5306	19.884780944587	3
19	5316	19.885002944587	1
19	5348	19.947009828233	0
19	5354	19.947231828233	1
19	5431	20.352570936766	3
19	5446	20.352792936766	1
19	5468	20.384781140351	3
19	5483	20.385003140351	1
19	5513	20.447009828233	0
19	5519	20.447231828233	1
19	5595	20.852570967622	3
19	5610	20.852792967622	1
19	5632	20.884781309668	3
19	5647	20.885003309668	1
19	5673	20.947009828233	0
19	5679	20.947231828233	1
20	381	3.947009828233	1
20	382	3.947009828233	2
20	386	3.947231828233	1
20	390	3.947231828233	0
20	468	4.447009828233	1
20	469	4.447009828233	2
20	473	4.447231828233	1
20	477	4.447231828233	0
20	550	4.947009828233	1
20	551	4.947009828233	2
20	555	4.947231828233	1
20	559	4.947231828233	0
20	637	5.447009828233	1
20	638	5.447009828233	2
20	642	5.447231828233	1
20	646	5.447231828233	0
20	798	5.947009828233	1
20	799	5.947009828233	2
20	803	5.947231828233	1
20	804	5.947231828233	0
20	963	6.447009828233	1
20	964	6.447009828233	2
20	968	6.447231828233	1
20	969	6.447231828233	0
20	1123	6.947009828233	1
20	1124	6.947009828233	2
20	1128	6.947231828233	1
20	1129	6.947231828233	0
20	1288	7.447009828233	1
20	1289	7.447009828233	2
20	1293	7.447231828233	1
20	1294	7.447231828233	0
20	1448	7.947009828233	1
20	1449	7.947009828233	2
20	1453	7.947231828233	1
20	1454	7.947231828233	0
20	1613	8.447009828233	1
20	1614	8.447009828233	2
20	1618	8.447231828233	1
20	1619	8.447231828233	0
20	1773	8.947009828233	1
20	1774	8.947009828233	2
20	1778	8.947231828233	1
20	1779	8.947231828233	0
20	1938	9.447009828233	1
20	1939	9.447009828233	2
20	1943	9.447231828233	1
20	1944	9.447231828233	0
20	2098	9.947009828233	1
20	2099	9.947009828233	2
20	2103	9.947231828233	1
20	2104	9.947231828233	0
20	2263	10.447009828233	1
20	2264	10.447009828233	2
20	2268	10.447231828233	1
20	2269	10.447231828233	0
20	2423	10.947009828233	1
20	2424	10.947009828233	2
20	2428	10.947231828233	1
20	2429	10.947231828233	0
20	2588	11.447009828233	1
20	2589	11.447009828233	2
20	2593	11.447231828233	1
20	2594	11.447231828233	0
20	2748	11.947009828233	1
20	2749	11.947009828233	2
20	2753	11.947231828233	1
20	2754	11.947231828233	0
20	2913	12.447009828233	1
20	2914	12.447009828233	2
20	2918	12.447231828233	1
20	2919	12.447231828233	0
20	3073	12.947009828233	1
20	3074	12.947009828233	2
20	3078	12.947231828233	1
20	3079	12.947231828233	0
20	4863	18.447009828233	1
20	4864	18.447009828233	2
20	4868	18.447231828233	1
20	4869	18.447231828233	0
20	5023	18.947009828233	1
20	5024	18.947009828233	2
20	5028	18.947231828233	1
20	5029	18.947231828233	0
20	5188	19.447009828233	1
20	5189	19.447009828233	2
20	5193	19.447231828233	1
20	5194	19.447231828233	0
20	5348	19.947009828233	1
20	5349	19.947009828233	2
20	5353	19.947231828233	1
20	5354	19.947231828233	0
20	5513	20.447009828233	1
20	5514	20.447009828233	2
20	5518	20.447231828233	1
20	5519	20.447231828233	0
20	5673	20.947009828233	1
20	5674	20.947009828233	2
20	5678	20.947231828233	1
20	5679	20.947231828233	0
21	0	0	0
22	0	0	0
22	0	0	0
22	0	0	0
22	0	0	0
22	376	3.947009828233	0
22	376	3.947009828233	2
22	378	3.947009828233	2
22	378	3.947009828233	3
22	381	3.947009828233	3
22	381	3.947009828233	3
22	386	3.947231828233	3
22	386	3.947231828233	0
22	390	3.947231828233	0
22	390	3.947231828233	0
22	463	4.447009828233	0
22	463	4.447009828233	2
22	465	4.447009828233	2
22	465	4.447009828233	3
22	468	4.447009828233	3
22	468	4.447009828233	3
22	473	4.447231828233	3
22	473	4.447231828233	0
22	477	4.447231828233	0
22	477	4.447231828233	0
22	545	4.947009828233	0
22	545	4.947009828233	2
22	547	4.947009828233	2
22	547	4.947009828233	3
22	550	4.947009828233	3
22	550	4.947009828233	3
22	555	4.947231828233	3
22	555	4.947231828233	0
22	559	4.947231828233	0
22	559	4.947231828233	0
22	632	5.447009828233	0
22	632	5.447009828233	2
22	634	5.447009828233	2
22	634	5.447009828233	3
22	637	5.447009828233	3
22	637	5.447009828233	3
22	642	5.447231828233	3
22	642	5.447231828233	0
22	646	5.447231828233	0
22	646	5.447231828233	0
22	703	5.719886709309	0
22	703	5.719886709309	0
22	707	5.720108709309	0
22	707	5.720108709309	0
22	757	5.884780786212	0
22	757	5.884780786212	0
22	772	5.885002786212	0
22	772	5.885002786212	0
22	793	5.947009828233	0
22	793	5.947009828233	2
22	795	5.947009828233	2
22	795	5.947009828233	3
22	798	5.947009828233	3
22	798	5.947009828233	3
22	803	5.947231828233	3
22	803	5.947231828233	0
22	804	5.947231828233	0
22	804	5.947231828233	0
22	872	6.219886775948	0
22	872	6.219886775948	0
22	887	6.220108775948	0
22	887	6.220108775948	0
22	918	6.384780963636	0
22	918	6.384780963636	0
22	933	6.385002963636	0
22	933	6.385002963636	0
22	958	6.447009828233	0
22	958	6.447009828233	2
22	960	6.447009828233	2
22	960	6.447009828233	3
22	963	6.447009828233	3
22	963	6.447009828233	3
22	968	6.447231828233	3
22	968	6.447231828233	0
22	969	6.447231828233	0
22	969	6.447231828233	0
22	1032	6.719886955999	0
22	1032	6.719886955999	0
22	1047	6.720108955999	0
22	1047	6.720108955999	0
22	1082	6.884781281265	0
22	1082	6.884781281265	0
22	1097	6.885003281265	0
22	1097	6.885003281265	0
22	1118	6.947009828233	0
22	1118	6.947009828233	2
22	1120	6.947009828233	2
22	1120	6.947009828233	3
22	1123	6.947009828233	3
22	1123	6.947009828233	3
22	1128	6.947231828233	3
22	1128	6.947231828233	0
22	1129	6.947231828233	0
22	1129	6.947231828233	0
22	1197	7.219887089279	0
22	1197	7.219887089279	0
22	1212	7.220109089279	0
22	1212	7.220109089279	0
22	1243	7.384781519329	0
22	1243	7.384781519329	0
22	1258	7.385003519329	0
22	1258	7.385003519329	0
22	1283	7.447009828233	0
22	1283	7.447009828233	2
22	1285	7.447009828233	2
22	1285	7.447009828233	3
22	1288	7.447009828233	3
22	1288	7.447009828233	3
22	1293	7.447231828233	3
22	1293	7.447231828233	0
22	1294	7.447231828233	0
22	1294	7.447231828233	0
22	1357	7.719887144434	0
22	1357	7.719887144434	0
22	1372	7.720109144434	0
22	1372	7.720109144434	0
22	1407	7.884781634363	0
22	1407	7.884781634363	0
22	1422	7.885003634363	0
22	1422	7.885003634363	0
22	1443	7.947009828233	0
22	1443	7.947009828233	2
22	1445	7.947009828233	2
22	1445	7.947009828233	3
22	1448	7.947009828233	3
22	1448	7.947009828233	3
22	1453	7.947231828233	3
22	1453	7.947231828233	0
22	1454	7.947231828233	0
22	1454	7.947231828233	0
22	1521	8.219887084493	0
22	1521	8.219887084493	0
22	1531	8.220109084493	0
22	1531	8.220109084493	0
22	1568	8.384781651111	0
22	1568	8.384781651111	0
22	1583	8.385003651111	0
22	1583	8.385003651111	0
22	1608	8.447009828233	0
22	1608	8.447009828233	2
22	1610	8.447009828233	2
22	1610	8.447009828233	3
22	1613	8.447009828233	3
22	1613	8.447009828233	3
22	1618	8.447231828233	3
22	1618	8.447231828233	0
22	1619	8.447231828233	0
22	1619	8.447231828233	0
22	1680	8.719886959007	0
22	1680	8.719886959007	0
22	1685	8.720108959007	0
22	1685	8.720108959007	0
22	1732	8.884781625714	0
22	1732	8.884781625714	0
22	1747	8.885003625714	0
22	1747	8.885003625714	0
22	1768	8.947009828233	0
22	1768	8.947009828233	2
22	1770	8.947009828233	2
22	1770	8.947009828233	3
22	1773	8.947009828233	3
22	1773	8.947009828233	3
22	1778	8.947231828233	3
22	1778	8.947231828233	0
22	1779	8.947231828233	0
22	1779	8.947231828233	0
22	1845	9.219886868365	0
22	1845	9.219886868365	0
22	1850	9.220108868365	0
22	1850	9.220108868365	0
22	1892	9.35257111947	0
22	1892	9.35257111947	0
22	1907	9.35279311947	0
22	1907	9.35279311947	0
22	1933	9.447009828233	0
22	1933	9.447009828233	2
22	1935	9.447009828233	2
22	1935	9.447009828233	3
22	1938	9.447009828233	3
22	1938	9.447009828233	3
22	1943	9.447231828233	3
22	1943	9.447231828233	0
22	1944	9.447231828233	0
22	1944	9.447231828233	0
22	2005	9.719886884257	0
22	2005	9.719886884257	0
22	2010	9.720108884257	0
22	2010	9.720108884257	0
22	2056	9.852571143388	0
22	2056	9.852571143388	0
22	2071	9.852793143388	0
22	2071	9.852793143388	0
22	2093	9.947009828233	0
22	2093	9.947009828233	2
22	2095	9.947009828233	2
22	2095	9.947009828233	3
22	2098	9.947009828233	3
22	2098	9.947009828233	3
22	2103	9.947231828233	3
22	2103	9.947231828233	0
22	2104	9.947231828233	0
22	2104	9.947231828233	0
22	2172	10.219886992572	0
22	2172	10.219886992572	0
22	2187	10.220108992572	0
22	2187	10.220108992572	0
22	2217	10.352571200261	0
22	2217	10.352571200261	0
22	2232	10.352793200261	0
22	2232	10.352793200261	0
22	2258	10.447009828233	0
22	2258	10.447009828233	2
22	2260	10.447009828233	2
22	2260	10.447009828233	3
22	2263	10.447009828233	3
22	2263	10.447009828233	3
22	2268	10.447231828233	3
22	2268	10.447231828233	0
22	2269	10.447231828233	0
22	2269	10.447231828233	0
22	2332	10.719887095146	0
22	2332	10.719887095146	0
22	2347	10.720109095146	0
22	2347	10.720109095146	0
22	2381	10.852571256839	0
22	2381	10.852571256839	0
22	2396	10.852793256839	0
22	2396	10.852793256839	0
22	2418	10.947009828233	0
22	2418	10.947009828233	2
22	2420	10.947009828233	2
22	2420	10.947009828233	3
22	2423	10.947009828233	3
22	2423	10.947009828233	3
22	2428	10.947231828233	3
22	2428	10.947231828233	0
22	2429	10.947231828233	0
22	2429	10.947231828233	0
22	2497	11.219887101664	0
22	2497	11.219887101664	0
22	2512	11.220109101664	0
22	2512	11.220109101664	0
22	2542	11.352571285698	0
22	2542	11.352571285698	0
22	2557	11.352793285698	0
22	2557	11.352793285698	0
22	2583	11.447009828233	0
22	2583	11.447009828233	2
22	2585	11.447009828233	2
22	2585	11.447009828233	3
22	2588	11.447009828233	3
22	2588	11.447009828233	3
22	2593	11.447231828233	3
22	2593	11.447231828233	0
22	2594	11.447231828233	0
22	2594	11.447231828233	0
22	2656	11.719887014086	0
22	2656	11.719887014086	0
22	2666	11.720109014086	0
22	2666	11.720109014086	0
22	2706	11.852571277227	0
22	2706	11.852571277227	0
22	2721	11.852793277227	0
22	2721	11.852793277227	0
22	2743	11.947009828233	0
22	2743	11.947009828233	2
22	2745	11.947009828233	2
22	2745	11.947009828233	3
22	2748	11.947009828233	3
22	2748	11.947009828233	3
22	2753	11.947231828233	3
22	2753	11.947231828233	0
22	2754	11.947231828233	0
22	2754	11.947231828233	0
22	2820	12.219886920563	0
22	2820	12.219886920563	0
22	2825	12.220108920563	0
22	2825	12.220108920563	0
22	2867	12.35257126032	0
22	2867	12.35257126032	0
22	2882	12.35279326032	0
22	2882	12.35279326032	0
22	2908	12.447009828233	0
22	2908	12.447009828233	2
22	2910	12.447009828233	2
22	2910	12.447009828233	3
22	2913	12.447009828233	3
22	2913	12.447009828233	3
22	2918	12.447231828233	3
22	2918	12.447231828233	0
22	2919	12.447231828233	0
22	2919	12.447231828233	0
22	2980	12.719886893618	0
22	2980	12.719886893618	0
22	2985	12.720108893618	0
22	2985	12.720108893618	0
22	3031	12.852571266991	0
22	3031	12.852571266991	0
22	3046	12.852793266991	0
22	3046	12.852793266991	0
22	3068	12.947009828233	0
22	3068	12.947009828233	2
22	3070	12.947009828233	2
22	3070	12.947009828233	3
22	3073	12.947009828233	3
22	3073	12.947009828233	3
22	3078	12.947231828233	3
22	3078	12.947231828233	0
22	3079	12.947231828233	0
22	3079	12.947231828233	0
22	3145	13.219887060141	0
22	3145	13.219887060141	0
22	3150	13.220109060141	0
22	3150	13.220109060141	0
22	3190	13.352570773702	0
22	3190	13.352570773702	0
22	3195	13.352792773702	0
22	3195	13.352792773702	0
22	3227	13.384780783303	0
22	3227	13.384780783303	0
22	3232	13.385002783303	0
22	3232	13.385002783303	0
22	3306	13.719887031609	0
22	3306	13.719887031609	0
22	3316	13.720109031609	0
22	3316	13.720109031609	0
22	3354	13.852570805295	0
22	3354	13.852570805295	0
22	3359	13.852792805295	0
22	3359	13.852792805295	0
22	3391	13.884780840933	0
22	3391	13.884780840933	0
22	3396	13.885002840933	0
22	3396	13.885002840933	0
22	3471	14.219887000331	0
22	3471	14.219887000331	0
22	3481	14.220109000331	0
22	3481	14.220109000331	0
22	3515	14.352570866533	0
22	3515	14.352570866533	0
22	3520	14.352792866533	0
22	3520	14.352792866533	0
22	3552	14.384780909943	0
22	3552	14.384780909943	0
22	3557	14.385002909943	0
22	3557	14.385002909943	0
22	3631	14.719887003635	0
22	3631	14.719887003635	0
22	3641	14.720109003635	0
22	3641	14.720109003635	0
22	3679	14.852570903831	0
22	3679	14.852570903831	0
22	3684	14.852792903831	0
22	3684	14.852792903831	0
22	3716	14.884780920842	0
22	3716	14.884780920842	0
22	3721	14.885002920842	0
22	3721	14.885002920842	0
22	3796	15.219887051811	0
22	3796	15.219887051811	0
22	3806	15.220109051811	0
22	3806	15.220109051811	0
22	3840	15.352570925609	0
22	3840	15.352570925609	0
22	3845	15.352792925609	0
22	3845	15.352792925609	0
22	3877	15.384780901283	0
22	3877	15.384780901283	0
22	3882	15.385002901283	0
22	3882	15.385002901283	0
22	3956	15.7198871118	0
22	3956	15.7198871118	0
22	3966	15.7201091118	0
22	3966	15.7201091118	0
22	4004	15.852570937482	0
22	4004	15.852570937482	0
22	4009	15.852792937482	0
22	4009	15.852792937482	0
22	4041	15.884780892772	0
22	4041	15.884780892772	0
22	4046	15.885002892772	0
22	4046	15.885002892772	0
22	4121	16.219887143141	0
22	4121	16.219887143141	0
22	4131	16.220109143141	0
22	4131	16.220109143141	0
22	4165	16.352570943033	0
22	4165	16.352570943033	0
22	4170	16.352792943033	0
22	4170	16.352792943033	0
22	4202	16.38478089232	0
22	4202	16.38478089232	0
22	4207	16.38500289232	0
22	4207	16.38500289232	0
22	4281	16.719887129616	0
22	4281	16.719887129616	0
22	4291	16.720109129616	0
22	4291	16.720109129616	0
22	4329	16.85257094455	0
22	4329	16.85257094455	0
22	4334	16.85279294455	0
22	4334	16.85279294455	0
22	4366	16.884780899651	0
22	4366	16.884780899651	0
22	4371	16.885002899651	0
22	4371	16.885002899651	0
22	4446	17.219887090088	0
22	4446	17.219887090088	0
22	4456	17.220109090088	0
22	4456	17.220109090088	0
22	4490	17.352570943491	0
22	4490	17.352570943491	0
22	4495	17.352792943491	0
22	4495	17.352792943491	0
22	4527	17.384780925238	0
22	4527	17.384780925238	0
22	4532	17.385002925238	0
22	4532	17.385002925238	0
22	4606	17.719887055874	0
22	4606	17.719887055874	0
22	4616	17.720109055874	0
22	4616	17.720109055874	0
22	4654	17.852570940789	0
22	4654	17.852570940789	0
22	4659	17.852792940789	0
22	4659	17.852792940789	0
22	4691	17.884780938598	0
22	4691	17.884780938598	0
22	4696	17.885002938598	0
22	4696	17.885002938598	0
22	4770	18.219887047351	0
22	4770	18.219887047351	0
22	4775	18.220109047351	0
22	4775	18.220109047351	0
22	4816	18.35257093738	0
22	4816	18.35257093738	0
22	4826	18.35279293738	0
22	4826	18.35279293738	0
22	4858	18.447009828233	0
22	4858	18.447009828233	2
22	4860	18.447009828233	2
22	4860	18.447009828233	3
22	4863	18.447009828233	3
22	4863	18.447009828233	3
22	4868	18.447231828233	3
22	4868	18.447231828233	0
22	4869	18.447231828233	0
22	4869	18.447231828233	0
22	4930	18.719887061031	0
22	4930	18.719887061031	0
22	4935	18.720109061031	0
22	4935	18.720109061031	0
22	4980	18.852570954016	0
22	4980	18.852570954016	0
22	4990	18.852792954016	0
22	4990	18.852792954016	0
22	5018	18.947009828233	0
22	5018	18.947009828233	2
22	5020	18.947009828233	2
22	5020	18.947009828233	3
22	5023	18.947009828233	3
22	5023	18.947009828233	3
22	5028	18.947231828233	3
22	5028	18.947231828233	0
22	5029	18.947231828233	0
22	5029	18.947231828233	0
22	5095	19.219887075942	0
22	5095	19.219887075942	0
22	5100	19.220109075942	0
22	5100	19.220109075942	0
22	5142	19.384780840445	0
22	5142	19.384780840445	0
22	5152	19.385002840445	0
22	5152	19.385002840445	0
22	5183	19.447009828233	0
22	5183	19.447009828233	2
22	5185	19.447009828233	2
22	5185	19.447009828233	3
22	5188	19.447009828233	3
22	5188	19.447009828233	3
22	5193	19.447231828233	3
22	5193	19.447231828233	0
22	5194	19.447231828233	0
22	5194	19.447231828233	0
22	5255	19.719887052265	0
22	5255	19.719887052265	0
22	5260	19.720109052265	0
22	5260	19.720109052265	0
22	5306	19.884780944587	0
22	5306	19.884780944587	0
22	5316	19.885002944587	0
22	5316	19.885002944587	0
22	5343	19.947009828233	0
22	5343	19.947009828233	2
22	5345	19.947009828233	2
22	5345	19.947009828233	3
22	5348	19.947009828233	3
22	5348	19.947009828233	3
22	5353	19.947231828233	3
22	5353	19.947231828233	0
22	5354	19.947231828233	0
22	5354	19.947231828233	0
22	5431	20.352570936766	0
22	5431	20.352570936766	0
22	5446	20.352792936766	0
22	5446	20.352792936766	0
22	5468	20.384781140351	0
22	5468	20.384781140351	0
22	5483	20.385003140351	0
22	5483	20.385003140351	0
22	5508	20.447009828233	0
22	5508	20.447009828233	2
22	5510	20.447009828233	2
22	5510	20.447009828233	3
22	5513	20.447009828233	3
22	5513	20.447009828233	3
22	5518	20.447231828233	3
22	5518	20.447231828233	0
22	5519	20.447231828233	0
22	5519	20.447231828233	0
22	5595	20.852570967622	0
22	5595	20.852570967622	0
22	5610	20.852792967622	0
22	5610	20.852792967622	0
22	5632	20.884781309668	0
22	5632	20.884781309668	0
22	5647	20.885003309668	0
22	5647	20.885003309668	0
22	5668	20.947009828233	0
22	5668	20.947009828233	2
22	5670	20.947009828233	2
22	5670	20.947009828233	3
22	5673	20.947009828233	3
22	5673	20.947009828233	3
22	5678	20.947231828233	3
22	5678	20.947231828233	0
22	5679	20.947231828233	0
22	5679	20.947231828233	0
23	751	5.884780782412	512
23	821	5.94723183812	512
23	886	6.22010873252	512
23	912	6.384780782412	512
23	987	6.447232047132	512
23	1046	6.72010885957	512
23	1076	6.884780782412	512
23	1147	6.947232363192	512
23	1211	7.22010901735	512
23	1237	7.384780782412	512
23	1312	7.447232585711	512
23	1371	7.720109124374	512
23	1401	7.884780782412	512
23	1472	7.947232686576	512
23	1542	8.220109227176	512
23	1562	8.384780782412	512
23	1637	8.447232694815	512
23	1702	8.720109327314	512
23	1726	8.884780782412	512
23	1797	8.947232668686	512
23	3161	13.220109060141	512
23	3206	13.352792774152	512
23	3223	13.384780782412	512
23	3315	13.7201090027	512
23	3370	13.852792857738	512
23	3387	13.884780782412	512
23	3480	14.22010889688	512
23	3531	14.352792991389	512
23	3548	14.384780782412	512
23	3640	14.720108885997	512
23	3695	14.85279304252	512
23	3712	14.884780782412	512
23	3805	15.220108967668	512
23	3856	15.352793038446	512
23	3873	15.384780782412	512
23	3965	15.720109071457	512
23	4020	15.852793022553	512
23	4037	15.884780782412	512
23	4130	16.220109115745	512
23	4181	16.352793022046	512
23	4198	16.384780782412	512
23	4290	16.720109068446	512
23	4345	16.852793046157	512
23	4362	16.884780782412	512
23	4455	17.220108972835	512
23	4506	17.352793081332	512
23	4523	17.384780782412	512
23	4615	17.720108903865	512
23	4670	17.852793096602	512
23	4687	17.884780782412	512
23	5116	19.220109120674	512
23	5137	19.384780782412	512
23	5200	19.447231890038	512
23	5271	19.72010915726	512
23	5301	19.884780782412	512
23	5366	19.94723201565	512
23	5445	20.352792759372	512
23	5462	20.384780782412	512
23	5537	20.447232207728	512
23	5609	20.852792899093	512
23	5626	20.884780782412	512
23	5697	20.947232373532	512
24	740	5.884780782412	512
24	903	6.384780782412	512
24	1067	6.884780782412	512
24	1228	7.384780782412	512
24	1392	7.884780782412	512
24	1553	8.384780782412	512
24	1717	8.884780782412	512
24	3214	13.384780782412	512
24	3378	13.884780782412	512
24	3539	14.384780782412	512
24	3703	14.884780782412	512
24	3864	15.384780782412	512
24	4028	15.884780782412	512
24	4189	16.384780782412	512
24	4353	16.884780782412	512
24	4514	17.384780782412	512
24	4678	17.884780782412	512
24	5128	19.384780782412	512
24	5292	19.884780782412	512
24	5453	20.384780782412	512
24	5617	20.884780782412	512
25	751	5.884780782412	0
25	821	5.94723183812	0.000222009887
25	886	6.22010873252	0.000222023211
25	912	6.384780782412	0
25	987	6.447232047132	0.000222218899
25	1046	6.72010885957	0.000222150261
25	1076	6.884780782412	0
25	1147	6.947232363192	0.000222534959
25	1211	7.22010901735	0.000222308041
25	1237	7.384780782412	0
25	1312	7.447232585711	0.000222757478
25	1371	7.720109124374	0.000222415065
25	1401	7.884780782412	0
25	1472	7.947232686576	0.000222858343
25	1542	8.220109227176	0.000222517867
25	1562	8.384780782412	0
25	1637	8.447232694815	0.000222866582
25	1702	8.720109327314	0.000222618005
25	1726	8.884780782412	0
25	1797	8.947232668686	0.000222840453
25	3161	13.220109060141	0.000222350832
25	3206	13.352792774152	0.000222099118
25	3223	13.384780782412	0
25	3315	13.7201090027	0.000222293391
25	3370	13.852792857738	0.000222182704
25	3387	13.884780782412	0
25	3480	14.22010889688	0.000222187571
25	3531	14.352792991389	0.000222316355
25	3548	14.384780782412	0
25	3640	14.720108885997	0.000222176688
25	3695	14.85279304252	0.000222367486
25	3712	14.884780782412	0
25	3805	15.220108967668	0.000222258359
25	3856	15.352793038446	0.000222363412
25	3873	15.384780782412	0
25	3965	15.720109071457	0.000222362148
25	4020	15.852793022553	0.000222347519
25	4037	15.884780782412	0
25	4130	16.220109115745	0.000222406436
25	4181	16.352793022046	0.000222347012
25	4198	16.384780782412	0
25	4290	16.720109068446	0.000222359137
25	4345	16.852793046157	0.000222371123
25	4362	16.884780782412	0
25	4455	17.220108972835	0.000222263526
25	4506	17.352793081332	0.000222406298
25	4523	17.384780782412	0
25	4615	17.720108903865	0.000222194556
25	4670	17.852793096602	0.000222421568
25	4687	17.884780782412	0
25	5116	19.220109120674	0.000222411365
25	5137	19.384780782412	0
25	5200	19.447231890038	0.000222061805
25	5271	19.72010915726	0.000222447951
25	5301	19.884780782412	0
25	5366	19.94723201565	0.000222187417
25	5445	20.352792759372	0.000222084338
25	5462	20.384780782412	0
25	5537	20.447232207728	0.000222379495
25	5609	20.852792899093	0.000222224059
25	5626	20.884780782412	0
25	5697	20.947232373532	0.000222545299
27	743	5.884780782412	520
27	904	6.384780782412	520
27	1068	6.884780782412	520
27	1229	7.384780782412	520
27	1393	7.884780782412	520
27	1554	8.384780782412	520
27	1718	8.884780782412	520
27	3215	13.384780782412	520
27	3379	13.884780782412	520
27	3540	14.384780782412	520
27	3704	14.884780782412	520
27	3865	15.384780782412	520
27	4029	15.884780782412	520
27	4190	16.384780782412	520
27	4354	16.884780782412	520
27	4515	17.384780782412	520
27	4679	17.884780782412	520
27	5129	19.384780782412	520
27	5293	19.884780782412	520
27	5454	20.384780782412	520
27	5618	20.884780782412	520
28	400	3.947231828233	520
28	487	4.447231828233	520
28	569	4.947231828233	520
28	656	5.447231828233	520
28	721	5.720108709309	520
28	749	5.884780782412	520
28	819	5.94723183812	520
28	885	6.22010873252	520
28	910	6.384780782412	520
28	986	6.447232047132	520
28	1045	6.72010885957	520
28	1074	6.884780782412	520
28	1146	6.947232363192	520
28	1210	7.22010901735	520
28	1235	7.384780782412	520
28	1311	7.447232585711	520
28	1370	7.720109124374	520
28	1399	7.884780782412	520
28	1471	7.947232686576	520
28	1541	8.220109227176	520
28	1560	8.384780782412	520
28	1636	8.447232694815	520
28	1701	8.720109327314	520
28	1724	8.884780782412	520
28	1796	8.947232668686	520
28	1864	9.220109008727	520
28	1899	9.352792675053	520
28	1961	9.447232273666	520
28	2026	9.720109004205	520
28	2063	9.852792676425	520
28	2121	9.947232307421	520
28	2185	10.220108956241	520
28	2224	10.352792677547	520
28	2286	10.447232366617	520
28	2339	10.72010892009	520
28	2388	10.852792683501	520
28	2440	10.947232406168	520
28	2504	11.220108938549	520
28	2549	11.352792713595	520
28	2605	11.44723239831	520
28	2664	11.720108999024	520
28	2713	11.852792743546	520
28	2765	11.947232358822	520
28	2835	12.220109051914	520
28	2874	12.352792760909	520
28	2930	12.447232329715	520
28	2995	12.720109073108	520
28	3038	12.852792769958	520
28	3090	12.94723233487	520
28	3159	13.220109060141	520
28	3205	13.352792774152	520
28	3221	13.384780782412	520
28	3314	13.7201090027	520
28	3369	13.852792857738	520
28	3385	13.884780782412	520
28	3479	14.22010889688	520
28	3530	14.352792991389	520
28	3546	14.384780782412	520
28	3639	14.720108885997	520
28	3694	14.85279304252	520
28	3710	14.884780782412	520
28	3804	15.220108967668	520
28	3855	15.352793038446	520
28	3871	15.384780782412	520
28	3964	15.720109071457	520
28	4019	15.852793022553	520
28	4035	15.884780782412	520
28	4129	16.220109115745	520
28	4180	16.352793022046	520
28	4196	16.384780782412	520
28	4289	16.720109068446	520
28	4344	16.852793046157	520
28	4360	16.884780782412	520
28	4454	17.220108972835	520
28	4505	17.352793081332	520
28	4521	17.384780782412	520
28	4614	17.720108903865	520
28	4669	17.852793096602	520
28	4685	17.884780782412	520
28	4784	18.220109047351	520
28	4824	18.352792937037	520
28	4874	18.447231829859	520
28	4945	18.720109071804	520
28	4988	18.852792935779	520
28	5034	18.947231852712	520
28	5114	19.220109120674	520
28	5135	19.384780782412	520
28	5199	19.447231890038	520
28	5270	19.72010915726	520
28	5299	19.884780782412	520
28	5365	19.94723201565	520
28	5444	20.352792759372	520
28	5460	20.384780782412	520
28	5536	20.447232207728	520
28	5608	20.852792899093	520
28	5624	20.884780782412	520
28	5696	20.947232373532	520
29	749	5.884780782412	1
29	819	5.94723183812	2
29	885	6.22010873252	3
29	910	6.384780782412	4
29	986	6.447232047132	5
29	1045	6.72010885957	6
29	1074	6.884780782412	7
29	1146	6.947232363192	8
29	1210	7.22010901735	9
29	1235	7.384780782412	10
29	1311	7.447232585711	11
29	1370	7.720109124374	12
29	1399	7.884780782412	13
29	1471	7.947232686576	14
29	1541	8.220109227176	15
29	1560	8.384780782412	16
29	1636	8.447232694815	17
29	1701	8.720109327314	18
29	1724	8.884780782412	19
29	1796	8.947232668686	20
29	1864	9.220109008727	21
29	1899	9.352792675053	22
29	1961	9.447232273666	23
29	2026	9.720109004205	24
29	2063	9.852792676425	25
29	2121	9.947232307421	26
29	2185	10.220108956241	27
29	2224	10.352792677547	28
29	2286	10.447232366617	29
29	2339	10.72010892009	30
29	2388	10.852792683501	31
29	2440	10.947232406168	32
29	2504	11.220108938549	33
29	2549	11.352792713595	34
29	2605	11.44723239831	35
29	2664	11.720108999024	36
29	2713	11.852792743546	37
29	2765	11.947232358822	38
29	2835	12.220109051914	39
29	2874	12.352792760909	40
29	2930	12.447232329715	41
29	2995	12.720109073108	42
29	3038	12.852792769958	43
29	3090	12.94723233487	44
29	3159	13.220109060141	45
29	3205	13.352792774152	46
29	3221	13.384780782412	47
29	3314	13.7201090027	48
29	3369	13.852792857738	49
29	3385	13.884780782412	50
29	3479	14.22010889688	51
29	3530	14.352792991389	52
29	3546	14.384780782412	53
29	3639	14.720108885997	54
29	3694	14.85279304252	55
29	3710	14.884780782412	56
29	3804	15.220108967668	57
29	3855	15.352793038446	58
29	3871	15.384780782412	59
29	3964	15.720109071457	60
29	4019	15.852793022553	61
29	4035	15.884780782412	62
29	4129	16.220109115745	63
29	4180	16.352793022046	64
29	4196	16.384780782412	65
29	4289	16.720109068446	66
29	4344	16.852793046157	67
29	4360	16.884780782412	68
29	4454	17.220108972835	69
29	4505	17.352793081332	70
29	4521	17.384780782412	71
29	4614	17.720108903865	72
29	4669	17.852793096602	73
29	4685	17.884780782412	74
29	4784	18.220109047351	75
29	4824	18.352792937037	76
29	4874	18.447231829859	77
29	4945	18.720109071804	78
29	4988	18.852792935779	79
29	5034	18.947231852712	80
29	5114	19.220109120674	81
29	5135	19.384780782412	82
29	5199	19.447231890038	83
29	5270	19.72010915726	84
29	5299	19.884780782412	85
29	5365	19.94723201565	86
29	5444	20.352792759372	87
29	5460	20.384780782412	88
29	5536	20.447232207728	89
29	5608	20.852792899093	90
29	5624	20.884780782412	91
29	5696	20.947232373532	92
30	400	3.947231828233	1
30	487	4.447231828233	2
30	569	4.947231828233	3
30	656	5.447231828233	4
30	721	5.720108709309	5
35	745	5.884780782412	540
35	906	6.384780782412	540
35	1070	6.884780782412	540
35	1231	7.384780782412	540
35	1395	7.884780782412	540
35	1556	8.384780782412	540
35	1720	8.884780782412	540
35	3217	13.384780782412	540
35	3381	13.884780782412	540
35	3542	14.384780782412	540
35	3706	14.884780782412	540
35	3867	15.384780782412	540
35	4031	15.884780782412	540
35	4192	16.384780782412	540
35	4356	16.884780782412	540
35	4517	17.384780782412	540
35	4681	17.884780782412	540
35	5131	19.384780782412	540
35	5295	19.884780782412	540
35	5456	20.384780782412	540
35	5620	20.884780782412	540
36	745	5.884780782412	540
36	906	6.384780782412	540
36	1070	6.884780782412	540
36	1231	7.384780782412	540
36	1395	7.884780782412	540
36	1556	8.384780782412	540
36	1720	8.884780782412	540
36	3217	13.384780782412	540
36	3381	13.884780782412	540
36	3542	14.384780782412	540
36	3706	14.884780782412	540
36	3867	15.384780782412	540
36	4031	15.884780782412	540
36	4192	16.384780782412	540
36	4356	16.884780782412	540
36	4517	17.384780782412	540
36	4681	17.884780782412	540
36	5131	19.384780782412	540
36	5295	19.884780782412	540
36	5456	20.384780782412	540
36	5620	20.884780782412	540
37	391	3.947231828233	576
37	478	4.447231828233	576
37	560	4.947231828233	576
37	647	5.447231828233	576
37	712	5.720108709309	576
37	813	5.94723183812	576
37	882	6.22010873252	576
37	983	6.447232047132	576
37	1042	6.72010885957	576
37	1143	6.947232363192	576
37	1207	7.22010901735	576
37	1308	7.447232585711	576
37	1367	7.720109124374	576
37	1468	7.947232686576	576
37	1538	8.220109227176	576
37	1633	8.447232694815	576
37	1698	8.720109327314	576
37	1793	8.947232668686	576
37	1858	9.220109008727	576
37	1896	9.352792675053	576
37	1958	9.447232273666	576
37	2023	9.720109004205	576
37	2060	9.852792676425	576
37	2118	9.947232307421	576
37	2182	10.220108956241	576
37	2221	10.352792677547	576
37	2283	10.447232366617	576
37	2336	10.72010892009	576
37	2385	10.852792683501	576
37	2437	10.947232406168	576
37	2501	11.220108938549	576
37	2546	11.352792713595	576
37	2602	11.44723239831	576
37	2661	11.720108999024	576
37	2710	11.852792743546	576
37	2762	11.947232358822	576
37	2832	12.220109051914	576
37	2871	12.352792760909	576
37	2927	12.447232329715	576
37	2992	12.720109073108	576
37	3035	12.852792769958	576
37	3087	12.94723233487	576
37	3153	13.220109060141	576
37	3202	13.352792774152	576
37	3311	13.7201090027	576
37	3366	13.852792857738	576
37	3476	14.22010889688	576
37	3527	14.352792991389	576
37	3636	14.720108885997	576
37	3691	14.85279304252	576
37	3801	15.220108967668	576
37	3852	15.352793038446	576
37	3961	15.720109071457	576
37	4016	15.852793022553	576
37	4126	16.220109115745	576
37	4177	16.352793022046	576
37	4286	16.720109068446	576
37	4341	16.852793046157	576
37	4451	17.220108972835	576
37	4502	17.352793081332	576
37	4611	17.720108903865	576
37	4666	17.852793096602	576
37	4778	18.220109047351	576
37	4821	18.352792937037	576
37	4871	18.447231829859	576
37	4942	18.720109071804	576
37	4985	18.852792935779	576
37	5031	18.947231852712	576
37	5108	19.220109120674	576
37	5196	19.447231890038	576
37	5267	19.72010915726	576
37	5362	19.94723201565	576
37	5441	20.352792759372	576
37	5533	20.447232207728	576
37	5605	20.852792899093	576
37	5693	20.947232373532	576
38	752	5.884780782412	576
38	913	6.384780782412	576
38	1077	6.884780782412	576
38	1238	7.384780782412	576
38	1402	7.884780782412	576
38	1563	8.384780782412	576
38	1727	8.884780782412	576
38	3224	13.384780782412	576
38	3388	13.884780782412	576
38	3549	14.384780782412	576
38	3713	14.884780782412	576
38	3874	15.384780782412	576
38	4038	15.884780782412	576
38	4199	16.384780782412	576
38	4363	16.884780782412	576
38	4524	17.384780782412	576
38	4688	17.884780782412	576
38	5138	19.384780782412	576
38	5302	19.884780782412	576
38	5463	20.384780782412	576
38	5627	20.884780782412	576
39	748	5.884780782412	576
39	909	6.384780782412	576
39	1073	6.884780782412	576
39	1234	7.384780782412	576
39	1398	7.884780782412	576
39	1559	8.384780782412	576
39	1723	8.884780782412	576
39	3220	13.384780782412	576
39	3384	13.884780782412	576
39	3545	14.384780782412	576
39	3709	14.884780782412	576
39	3870	15.384780782412	576
39	4034	15.884780782412	576
39	4195	16.384780782412	576
39	4359	16.884780782412	576
39	4520	17.384780782412	576
39	4684	17.884780782412	576
39	5134	19.384780782412	576
39	5298	19.884780782412	576
39	5459	20.384780782412	576
39	5623	20.884780782412	576
40	391	3.947231828233	576
40	478	4.447231828233	576
40	560	4.947231828233	576
40	647	5.447231828233	576
40	712	5.720108709309	576
40	813	5.94723183812	576
40	882	6.22010873252	576
40	983	6.447232047132	576
40	1042	6.72010885957	576
40	1143	6.947232363192	576
40	1207	7.22010901735	576
40	1308	7.447232585711	576
40	1367	7.720109124374	576
40	1468	7.947232686576	576
40	1538	8.220109227176	576
40	1633	8.447232694815	576
40	1698	8.720109327314	576
40	1793	8.947232668686	576
40	1858	9.220109008727	576
40	1896	9.352792675053	576
40	1958	9.447232273666	576
40	2023	9.720109004205	576
40	2060	9.852792676425	576
40	2118	9.947232307421	576
40	2182	10.220108956241	576
40	2221	10.352792677547	576
40	2283	10.447232366617	576
40	2336	10.72010892009	576
40	2385	10.852792683501	576
40	2437	10.947232406168	576
40	2501	11.220108938549	576
40	2546	11.352792713595	576
40	2602	11.44723239831	576
40	2661	11.720108999024	576
40	2710	11.852792743546	576
40	2762	11.947232358822	576
40	2832	12.220109051914	576
40	2871	12.352792760909	576
40	2927	12.447232329715	576
40	2992	12.720109073108	576
40	3035	12.852792769958	576
40	3087	12.94723233487	576
40	3153	13.220109060141	576
40	3202	13.352792774152	576
40	3311	13.7201090027	576
40	3366	13.852792857738	576
40	3476	14.22010889688	576
40	3527	14.352792991389	576
40	3636	14.720108885997	576
40	3691	14.85279304252	576
40	3801	15.220108967668	576
40	3852	15.352793038446	576
40	3961	15.720109071457	576
40	4016	15.852793022553	576
40	4126	16.220109115745	576
40	4177	16.352793022046	576
40	4286	16.720109068446	576
40	4341	16.852793046157	576
40	4451	17.220108972835	576
40	4502	17.352793081332	576
40	4611	17.720108903865	576
40	4666	17.852793096602	576
40	4778	18.220109047351	576
40	4821	18.352792937037	576
40	4871	18.447231829859	576
40	4942	18.720109071804	576
40	4985	18.852792935779	576
40	5031	18.947231852712	576
40	5108	19.220109120674	576
40	5196	19.447231890038	576
40	5267	19.72010915726	576
40	5362	19.94723201565	576
40	5441	20.352792759372	576
40	5533	20.447232207728	576
40	5605	20.852792899093	576
40	5693	20.947232373532	576
41	0	0	0
41	0	0	2
41	753	5.884780782412	3
41	761	5.885002782412	2
41	914	6.384780782412	3
41	920	6.385002782412	2
41	1078	6.884780782412	3
41	1084	6.885002782412	2
41	1239	7.384780782412	3
41	1245	7.385002782412	2
41	1403	7.884780782412	3
41	1409	7.885002782412	2
41	1564	8.384780782412	3
41	1570	8.385002782412	2
41	1728	8.884780782412	3
41	1734	8.885002782412	2
41	3225	13.384780782412	3
41	3231	13.385002782412	2
41	3389	13.884780782412	3
41	3395	13.885002782412	2
41	3550	14.384780782412	3
41	3556	14.385002782412	2
41	3714	14.884780782412	3
41	3720	14.885002782412	2
41	3875	15.384780782412	3
41	3881	15.385002782412	2
41	4039	15.884780782412	3
41	4045	15.885002782412	2
41	4200	16.384780782412	3
41	4206	16.385002782412	2
41	4364	16.884780782412	3
41	4370	16.885002782412	2
41	4525	17.384780782412	3
41	4531	17.385002782412	2
41	4689	17.884780782412	3
41	4695	17.885002782412	2
41	5139	19.384780782412	3
41	5145	19.385002782412	2
41	5303	19.884780782412	3
41	5309	19.885002782412	2
41	5464	20.384780782412	3
41	5470	20.385002782412	2
41	5628	20.884780782412	3
41	5634	20.885002782412	2
42	0	0	1
42	383	3.947009828233	3
42	387	3.947231828233	1
42	470	4.447009828233	3
42	474	4.447231828233	1
42	552	4.947009828233	3
42	556	4.947231828233	1
42	639	5.447009828233	3
42	643	5.447231828233	1
42	704	5.719886709309	3
42	708	5.720108709309	1
42	753	5.884780782412	0
42	761	5.885002782412	1
42	801	5.94700983812	3
42	811	5.94723183812	1
42	871	6.21988673252	3
42	881	6.22010873252	1
42	914	6.384780782412	0
42	920	6.385002782412	1
42	967	6.447010047132	3
42	982	6.447232047132	1
42	1031	6.71988685957	3
42	1041	6.72010885957	1
42	1078	6.884780782412	0
42	1084	6.885002782412	1
42	1127	6.947010363192	3
42	1142	6.947232363192	1
42	1196	7.21988701735	3
42	1206	7.22010901735	1
42	1239	7.384780782412	0
42	1245	7.385002782412	1
42	1292	7.447010585711	3
42	1307	7.447232585711	1
42	1356	7.719887124374	3
42	1366	7.720109124374	1
42	1403	7.884780782412	0
42	1409	7.885002782412	1
42	1452	7.947010686576	3
42	1467	7.947232686576	1
42	1522	8.219887227176	3
42	1537	8.220109227176	1
42	1564	8.384780782412	0
42	1570	8.385002782412	1
42	1617	8.447010694815	3
42	1632	8.447232694815	1
42	1682	8.719887327314	3
42	1697	8.720109327314	1
42	1728	8.884780782412	0
42	1734	8.885002782412	1
42	1777	8.947010668686	3
42	1792	8.947232668686	1
42	1846	9.219887008727	3
42	1856	9.220109008727	1
42	1890	9.352570675053	3
42	1895	9.352792675053	1
42	1942	9.447010273666	3
42	1957	9.447232273666	1
42	2007	9.719887004205	3
42	2022	9.720109004205	1
42	2054	9.852570676425	3
42	2059	9.852792676425	1
42	2102	9.947010307421	3
42	2117	9.947232307421	1
42	2171	10.219886956241	3
42	2181	10.220108956241	1
42	2215	10.352570677547	3
42	2220	10.352792677547	1
42	2267	10.447010366617	3
42	2282	10.447232366617	1
42	2330	10.71988692009	3
42	2335	10.72010892009	1
42	2379	10.852570683501	3
42	2384	10.852792683501	1
42	2426	10.947010406168	3
42	2436	10.947232406168	1
42	2495	11.219886938549	3
42	2500	11.220108938549	1
42	2540	11.352570713595	3
42	2545	11.352792713595	1
42	2591	11.44701039831	3
42	2601	11.44723239831	1
42	2655	11.719886999024	3
42	2660	11.720108999024	1
42	2704	11.852570743546	3
42	2709	11.852792743546	1
42	2751	11.947010358822	3
42	2761	11.947232358822	1
42	2821	12.219887051914	3
42	2831	12.220109051914	1
42	2865	12.352570760909	3
42	2870	12.352792760909	1
42	2916	12.447010329715	3
42	2926	12.447232329715	1
42	2981	12.719887073108	3
42	2991	12.720109073108	1
42	3029	12.852570769958	3
42	3034	12.852792769958	1
42	3076	12.94701033487	3
42	3086	12.94723233487	1
42	3146	13.219887060141	3
42	3151	13.220109060141	1
42	3191	13.352570774152	3
42	3201	13.352792774152	1
42	3225	13.384780782412	0
42	3231	13.385002782412	1
42	3305	13.7198870027	3
42	3310	13.7201090027	1
42	3355	13.852570857738	3
42	3365	13.852792857738	1
42	3389	13.884780782412	0
42	3395	13.885002782412	1
42	3470	14.21988689688	3
42	3475	14.22010889688	1
42	3516	14.352570991389	3
42	3526	14.352792991389	1
42	3550	14.384780782412	0
42	3556	14.385002782412	1
42	3630	14.719886885997	3
42	3635	14.720108885997	1
42	3680	14.85257104252	3
42	3690	14.85279304252	1
42	3714	14.884780782412	0
42	3720	14.885002782412	1
42	3795	15.219886967668	3
42	3800	15.220108967668	1
42	3841	15.352571038446	3
42	3851	15.352793038446	1
42	3875	15.384780782412	0
42	3881	15.385002782412	1
42	3955	15.719887071457	3
42	3960	15.720109071457	1
42	4005	15.852571022553	3
42	4015	15.852793022553	1
42	4039	15.884780782412	0
42	4045	15.885002782412	1
42	4120	16.219887115745	3
42	4125	16.220109115745	1
42	4166	16.352571022046	3
42	4176	16.352793022046	1
42	4200	16.384780782412	0
42	4206	16.385002782412	1
42	4280	16.719887068446	3
42	4285	16.720109068446	1
42	4330	16.852571046157	3
42	4340	16.852793046157	1
42	4364	16.884780782412	0
42	4370	16.885002782412	1
42	4445	17.219886972835	3
42	4450	17.220108972835	1
42	4491	17.352571081332	3
42	4501	17.352793081332	1
42	4525	17.384780782412	0
42	4531	17.385002782412	1
42	4605	17.719886903865	3
42	4610	17.720108903865	1
42	4655	17.852571096602	3
42	4665	17.852793096602	1
42	4689	17.884780782412	0
42	4695	17.885002782412	1
42	4771	18.219887047351	3
42	4776	18.220109047351	1
42	4815	18.352570937037	3
42	4820	18.352792937037	1
42	4865	18.447009829859	3
42	4870	18.447231829859	1
42	4931	18.719887071804	3
42	4941	18.720109071804	1
42	4979	18.852570935779	3
42	4984	18.852792935779	1
42	5025	18.947009852712	3
42	5030	18.947231852712	1
42	5096	19.219887120674	3
42	5106	19.220109120674	1
42	5139	19.384780782412	0
42	5145	19.385002782412	1
42	5190	19.447009890038	3
42	5195	19.447231890038	1
42	5256	19.71988715726	3
42	5266	19.72010915726	1
42	5303	19.884780782412	0
42	5309	19.885002782412	1
42	5351	19.94701001565	3
42	5361	19.94723201565	1
42	5430	20.352570759372	3
42	5440	20.352792759372	1
42	5464	20.384780782412	0
42	5470	20.385002782412	1
42	5517	20.447010207728	3
42	5532	20.447232207728	1
42	5594	20.852570899093	3
42	5604	20.852792899093	1
42	5628	20.884780782412	0
42	5634	20.885002782412	1
42	5677	20.947010373532	3
42	5692	20.947232373532	1
43	753	5.884780782412	1
43	754	5.884780782412	2
43	758	5.885002782412	1
43	761	5.885002782412	0
43	914	6.384780782412	1
43	915	6.384780782412	2
43	919	6.385002782412	1
43	920	6.385002782412	0
43	1078	6.884780782412	1
43	1079	6.884780782412	2
43	1083	6.885002782412	1
43	1084	6.885002782412	0
43	1239	7.384780782412	1
43	1240	7.384780782412	2
43	1244	7.385002782412	1
43	1245	7.385002782412	0
43	1403	7.884780782412	1
43	1404	7.884780782412	2
43	1408	7.885002782412	1
43	1409	7.885002782412	0
43	1564	8.384780782412	1
43	1565	8.384780782412	2
43	1569	8.385002782412	1
43	1570	8.385002782412	0
43	1728	8.884780782412	1
43	1729	8.884780782412	2
43	1733	8.885002782412	1
43	1734	8.885002782412	0
43	3225	13.384780782412	1
43	3226	13.384780782412	2
43	3230	13.385002782412	1
43	3231	13.385002782412	0
43	3389	13.884780782412	1
43	3390	13.884780782412	2
43	3394	13.885002782412	1
43	3395	13.885002782412	0
43	3550	14.384780782412	1
43	3551	14.384780782412	2
43	3555	14.385002782412	1
43	3556	14.385002782412	0
43	3714	14.884780782412	1
43	3715	14.884780782412	2
43	3719	14.885002782412	1
43	3720	14.885002782412	0
43	3875	15.384780782412	1
43	3876	15.384780782412	2
43	3880	15.385002782412	1
43	3881	15.385002782412	0
43	4039	15.884780782412	1
43	4040	15.884780782412	2
43	4044	15.885002782412	1
43	4045	15.885002782412	0
43	4200	16.384780782412	1
43	4201	16.384780782412	2
43	4205	16.385002782412	1
43	4206	16.385002782412	0
43	4364	16.884780782412	1
43	4365	16.884780782412	2
43	4369	16.885002782412	1
43	4370	16.885002782412	0
43	4525	17.384780782412	1
43	4526	17.384780782412	2
43	4530	17.385002782412	1
43	4531	17.385002782412	0
43	4689	17.884780782412	1
43	4690	17.884780782412	2
43	4694	17.885002782412	1
43	4695	17.885002782412	0
43	5139	19.384780782412	1
43	5140	19.384780782412	2
43	5144	19.385002782412	1
43	5145	19.385002782412	0
43	5303	19.884780782412	1
43	5304	19.884780782412	2
43	5308	19.885002782412	1
43	5309	19.885002782412	0
43	5464	20.384780782412	1
43	5465	20.384780782412	2
43	5469	20.385002782412	1
43	5470	20.385002782412	0
43	5628	20.884780782412	1
[...]
91	4118	16.219886709309	3
91	4123	16.220108709309	3
91	4123	16.220108709309	0
91	4124	16.220108709309	0
91	4124	16.220108709309	0
91	4167	16.352571371916	0
91	4167	16.352571371916	0
91	4182	16.352793371916	0
91	4182	16.352793371916	0
91	4204	16.384781182032	0
91	4204	16.384781182032	0
91	4219	16.385003182032	0
91	4219	16.385003182032	0
91	4273	16.719886709309	0
91	4273	16.719886709309	2
91	4275	16.719886709309	2
91	4275	16.719886709309	3
91	4278	16.719886709309	3
91	4278	16.719886709309	3
91	4283	16.720108709309	3
91	4283	16.720108709309	0
91	4284	16.720108709309	0
91	4284	16.720108709309	0
91	4331	16.852571353546	0
91	4331	16.852571353546	0
91	4346	16.852793353546	0
91	4346	16.852793353546	0
91	4367	16.884781109885	0
91	4367	16.884781109885	0
91	4377	16.885003109885	0
91	4377	16.885003109885	0
91	4438	17.219886709309	0
91	4438	17.219886709309	2
91	4440	17.219886709309	2
91	4440	17.219886709309	3
91	4443	17.219886709309	3
91	4443	17.219886709309	3
91	4448	17.220108709309	3
91	4448	17.220108709309	0
91	4449	17.220108709309	0
91	4449	17.220108709309	0
91	4492	17.352571313309	0
91	4492	17.352571313309	0
91	4507	17.352793313309	0
91	4507	17.352793313309	0
91	4528	17.384781016136	0
91	4528	17.384781016136	0
91	4538	17.385003016136	0
91	4538	17.385003016136	0
91	4598	17.719886709309	0
91	4598	17.719886709309	2
91	4600	17.719886709309	2
91	4600	17.719886709309	3
91	4603	17.719886709309	3
91	4603	17.719886709309	3
91	4608	17.720108709309	3
91	4608	17.720108709309	0
91	4609	17.720108709309	0
91	4609	17.720108709309	0
91	4656	17.85257128207	0
91	4656	17.85257128207	0
91	4671	17.85279328207	0
91	4671	17.85279328207	0
91	4692	17.884780968344	0
91	4692	17.884780968344	0
91	4702	17.885002968344	0
91	4702	17.885002968344	0
91	4763	18.219886709309	0
91	4763	18.219886709309	2
91	4765	18.219886709309	2
91	4765	18.219886709309	3
91	4768	18.219886709309	3
91	4768	18.219886709309	3
91	4773	18.220108709309	3
91	4773	18.220108709309	0
91	4774	18.220108709309	0
91	4774	18.220108709309	0
91	4817	18.352571278417	0
91	4817	18.352571278417	0
91	4832	18.352793278417	0
91	4832	18.352793278417	0
91	4867	18.447010172033	0
91	4867	18.447010172033	0
91	4882	18.447232172033	0
91	4882	18.447232172033	0
91	4923	18.719886709309	0
91	4923	18.719886709309	2
91	4925	18.719886709309	2
91	4925	18.719886709309	3
91	4928	18.719886709309	3
91	4928	18.719886709309	3
91	4933	18.720108709309	3
91	4933	18.720108709309	0
91	4934	18.720108709309	0
91	4934	18.720108709309	0
91	4981	18.852571309025	0
91	4981	18.852571309025	0
91	4996	18.852793309025	0
91	4996	18.852793309025	0
91	5027	18.947010187526	0
91	5027	18.947010187526	0
91	5042	18.947232187526	0
91	5042	18.947232187526	0
91	5088	19.219886709309	0
91	5088	19.219886709309	2
91	5090	19.219886709309	2
91	5090	19.219886709309	3
91	5093	19.219886709309	3
91	5093	19.219886709309	3
91	5098	19.220108709309	3
91	5098	19.220108709309	0
91	5099	19.220108709309	0
91	5099	19.220108709309	0
91	5143	19.384781209693	0
91	5143	19.384781209693	0
91	5158	19.385003209693	0
91	5158	19.385003209693	0
91	5192	19.447010198244	0
91	5192	19.447010198244	0
91	5207	19.447232198244	0
91	5207	19.447232198244	0
91	5248	19.719886709309	0
91	5248	19.719886709309	2
91	5250	19.719886709309	2
91	5250	19.719886709309	3
91	5253	19.719886709309	3
91	5253	19.719886709309	3
91	5258	19.720108709309	3
91	5258	19.720108709309	0
91	5259	19.720108709309	0
91	5259	19.720108709309	0
91	5307	19.884781248501	0
91	5307	19.884781248501	0
91	5322	19.885003248501	0
91	5322	19.885003248501	0
91	5352	19.947010117638	0
91	5352	19.947010117638	0
91	5367	19.947232117638	0
91	5367	19.947232117638	0
91	5429	20.352570675034	0
91	5429	20.352570675034	0
91	5433	20.352792675034	0
91	5433	20.352792675034	0
91	5467	20.384780872601	0
91	5467	20.384780872601	0
91	5472	20.385002872601	0
91	5472	20.385002872601	0
91	5516	20.447010106625	0
91	5516	20.447010106625	0
91	5526	20.447232106625	0
91	5526	20.447232106625	0
91	5593	20.85257070665	0
91	5593	20.85257070665	0
91	5598	20.85279270665	0
91	5598	20.85279270665	0
91	5630	20.88478098369	0
91	5630	20.88478098369	0
91	5635	20.88500298369	0
91	5635	20.88500298369	0
91	5676	20.947010157188	0
91	5676	20.947010157188	0
91	5686	20.947232157188	0
91	5686	20.947232157188	0
92	66	1	1
92	78	1.1	1
92	90	1.2	1
92	98	1.3	1
92	110	1.4	1
92	118	1.5	1
92	130	1.6	1
92	138	1.7	1
92	150	1.8	1
92	158	1.9	1
92	171	2	1
92	179	2.1	1
92	191	2.2	1
92	199	2.3	1
92	211	2.4	1
92	219	2.5	1
92	231	2.6	1
92	239	2.7	1
92	251	2.8	1
92	259	2.9	1
92	272	3	1
92	280	3.1	1
92	292	3.2	1
92	300	3.3	1
92	312	3.4	1
92	320	3.5	1
92	332	3.6	1
92	340	3.7	1
92	352	3.8	1
92	360	3.9	1
92	409	4	1
92	417	4.1	1
92	429	4.2	1
92	437	4.3	1
92	449	4.4	1
92	491	4.5	1
92	503	4.6	1
92	511	4.7	1
92	523	4.8	1
92	531	4.9	1
92	578	5	1
92	586	5.1	1
92	598	5.2	1
92	606	5.3	1
92	618	5.4	1
92	660	5.5	1
92	672	5.6	1
92	680	5.7	1
92	729	5.8	0
92	779	5.9	0.019120458891013
92	829	6	0.066666666666667
92	837	6.1	0.14263862332696
92	849	6.2	0.25557680050988
92	894	6.3	0.36889738687062
92	944	6.4	0.51739961759082
92	989	6.5	0.64882090503505
92	1001	6.6	0.76698534098152
92	1009	6.7	0.87431485022307
92	1058	6.8	0.91994901210962
92	1104	6.9	0.98444869343531
92	1154	7	1
92	1162	7.1	1
92	1174	7.2	1
92	1219	7.3	1
92	1269	7.4	1
92	1314	7.5	1
92	1326	7.6	1
92	1334	7.7	1
92	1383	7.8	1
92	1429	7.9	1
92	1479	8	1
92	1487	8.1	1
92	1499	8.2	1
92	1544	8.3	1
92	1594	8.4	1
92	1639	8.5	1
92	1651	8.6	1
92	1659	8.7	0.9987253027406
92	1708	8.8	0.8321223709369
92	1754	8.9	0.806373486297
92	1804	9	0.78572339069471
92	1812	9.1	0.7678776290631
92	1824	9.2	0.75398342893563
92	1869	9.3	0.57527087316762
92	1919	9.4	0.5736137667304
92	1964	9.5	0.58036966220523
92	1976	9.6	0.59324410452518
92	1984	9.7	0.61389420012747
92	2033	9.8	0.6572339069471
92	2079	9.9	0.6887189292543
92	2129	10	0.7208413001912
92	2137	10.1	0.75462077756533
92	2149	10.2	0.79133205863607
92	2194	10.3	0.95219885277247
92	2244	10.4	0.97272147864882
92	2289	10.5	0.98699808795411
92	2301	10.6	0.9968132568515
92	2309	10.7	1
92	2358	10.8	1
92	2404	10.9	1
92	2454	11	1
92	2462	11.1	1
92	2474	11.2	1
92	2519	11.3	1
92	2569	11.4	1
92	2614	11.5	1
92	2626	11.6	1
92	2634	11.7	1
92	2683	11.8	0.95831739961759
92	2729	11.9	0.9408540471638
92	2779	12	0.92530274059911
92	2787	12.1	0.90949649458254
92	2799	12.2	0.89330783938815
92	2844	12.3	0.73397068196303
92	2894	12.4	0.72173358827279
92	2939	12.5	0.71485022307202
92	2951	12.6	0.71268323773104
92	2959	12.7	0.7144678138942
92	3008	12.8	0.67240280433397
92	3054	12.9	0.68565965583174
92	3104	13	1
92	3112	13.1	1
92	3124	13.2	1
92	3169	13.3	1
92	3255	13.4	1
92	3264	13.5	1
92	3276	13.6	1
92	3284	13.7	1
92	3333	13.8	1
92	3415	13.9	1
92	3429	14	1
92	3437	14.1	1
92	3449	14.2	1
92	3494	14.3	1
92	3580	14.4	1
92	3589	14.5	1
92	3601	14.6	1
92	3609	14.7	1
92	3658	14.8	1
92	3740	14.9	1
92	3754	15	1
92	3762	15.1	1
92	3774	15.2	1
92	3819	15.3	1
92	3905	15.4	1
92	3914	15.5	1
92	3926	15.6	1
92	3934	15.7	1
92	3983	15.8	1
92	4065	15.9	1
92	4079	16	1
92	4087	16.1	1
92	4099	16.2	1
92	4144	16.3	1
92	4230	16.4	1
92	4239	16.5	1
92	4251	16.6	1
92	4259	16.7	1
92	4308	16.8	1
92	4390	16.9	1
92	4404	17	1
92	4412	17.1	1
92	4424	17.2	1
92	4469	17.3	1
92	4555	17.4	1
92	4564	17.5	1
92	4576	17.6	1
92	4584	17.7	1
92	4633	17.8	1
92	4715	17.9	1
92	4729	18	1
92	4737	18.1	1
92	4749	18.2	1
92	4794	18.3	1
92	4844	18.4	0.88731676226896
92	4889	18.5	0.8912683237731
92	4901	18.6	0.89751434034417
92	4909	18.7	0.90465264499681
92	4958	18.8	0.91867431485022
92	5004	18.9	0.92912683237731
92	5054	19	0.94238368387508
92	5062	19.1	0.95245379222435
92	5074	19.2	0.95818992989165
92	5119	19.3	0.98100701083493
92	5169	19.4	0.22562141491396
92	5214	19.5	0.26641172721479
92	5226	19.6	0.3151051625239
92	5234	19.7	0.36341618865519
92	5283	19.8	0.47074569789675
92	5329	19.9	0.56673040152964
92	5379	20	0.59949012109624
92	5387	20.1	0.61516889738687
92	5399	20.2	0.61963033779477
92	5408	20.3	0.61261950286807
92	5494	20.4	0.57476099426386
92	5539	20.5	0.55984703632887
92	5551	20.6	0.5427660930529
92	5559	20.7	0.52453792224347
92	5572	20.8	0.50758444869344
92	5654	20.9	0.45353728489484
93	67	1	1
93	79	1.1	1
93	91	1.2	1
93	99	1.3	1
93	111	1.4	1
93	119	1.5	1
93	131	1.6	1
93	139	1.7	1
93	151	1.8	1
93	159	1.9	1
93	172	2	1
93	180	2.1	1
93	192	2.2	1
93	200	2.3	1
93	212	2.4	1
93	220	2.5	1
93	232	2.6	1
93	240	2.7	1
93	252	2.8	1
93	260	2.9	1
93	273	3	1
93	281	3.1	1
93	293	3.2	1
93	301	3.3	1
93	313	3.4	1
93	321	3.5	1
93	333	3.6	1
93	341	3.7	1
93	353	3.8	1
93	361	3.9	1
93	410	4	1
93	418	4.1	1
93	430	4.2	1
93	438	4.3	1
93	450	4.4	1
93	492	4.5	1
93	504	4.6	1
93	512	4.7	1
93	524	4.8	1
93	532	4.9	1
93	579	5	1
93	587	5.1	1
93	599	5.2	1
93	607	5.3	1
93	619	5.4	1
93	661	5.5	1
93	673	5.6	1
93	681	5.7	1
93	730	5.8	1
93	780	5.9	1
93	830	6	0.036583811344806
93	838	6.1	0.048311026131294
93	850	6.2	0.079668578712556
93	895	6.3	0.12339069471001
93	945	6.4	0.19018483110261
93	990	6.5	0.27036328871893
93	1002	6.6	0.35296367112811
93	1010	6.7	0.44614404079031
93	1059	6.8	0.627660930529
93	1105	6.9	0.71026131293818
93	1155	7	0.77629063097514
93	1163	7.1	0.83237731038878
93	1175	7.2	0.88145315487572
93	1220	7.3	0.99222434671765
93	1270	7.4	1
93	1315	7.5	1
93	1327	7.6	1
93	1335	7.7	1
93	1384	7.8	1
93	1430	7.9	1
93	1480	8	1
93	1488	8.1	1
93	1500	8.2	1
93	1545	8.3	1
93	1595	8.4	1
93	1640	8.5	1
93	1652	8.6	1
93	1660	8.7	1
93	1709	8.8	1
93	1755	8.9	1
93	1805	9	1
93	1813	9.1	1
93	1825	9.2	1
93	1870	9.3	1
93	1920	9.4	1
93	1965	9.5	1
93	1977	9.6	1
93	1985	9.7	1
93	2034	9.8	1
93	2080	9.9	1
93	2130	10	1
93	2138	10.1	1
93	2150	10.2	1
93	2195	10.3	1
93	2245	10.4	1
93	2290	10.5	1
93	2302	10.6	1
93	2310	10.7	1
93	2359	10.8	1
93	2405	10.9	1
93	2455	11	1
93	2463	11.1	1
93	2475	11.2	1
93	2520	11.3	1
93	2570	11.4	1
93	2615	11.5	1
93	2627	11.6	1
93	2635	11.7	1
93	2684	11.8	1
93	2730	11.9	1
93	2780	12	1
93	2788	12.1	1
93	2800	12.2	1
93	2845	12.3	1
93	2895	12.4	1
93	2940	12.5	1
93	2952	12.6	1
93	2960	12.7	1
93	3009	12.8	1
93	3055	12.9	1
93	3105	13	1
93	3113	13.1	1
93	3125	13.2	1
93	3170	13.3	1
93	3256	13.4	0.37641810070108
93	3265	13.5	0.38814531548757
93	3277	13.6	0.41835564053537
93	3285	13.7	0.45889101338432
93	3334	13.8	0.44818355640535
93	3416	13.9	0.57144678138942
93	3430	14	0.58228170809433
93	3438	14.1	0.58661567877629
93	3450	14.2	0.58636073932441
93	3495	14.3	0.50286806883365
93	3581	14.4	0.61402166985341
93	3590	14.5	0.6031867431485
93	3602	14.6	0.59923518164436
93	3610	14.7	0.60089228808158
93	3659	14.8	0.64907584448693
93	3741	14.9	0.66704907584449
93	3755	15	0.68629700446144
93	3763	15.1	0.71179094964946
93	3775	15.2	0.74123645634162
93	3820	15.3	0.89700446144041
93	3906	15.4	0.92109623964308
93	3915	15.5	0.94059910771192
93	3927	15.6	0.95818992989165
93	3935	15.7	0.97272147864882
93	3984	15.8	1
93	4066	15.9	1
93	4080	16	1
93	4088	16.1	1
93	4100	16.2	1
93	4145	16.3	1
93	4231	16.4	1
93	4240	16.5	1
93	4252	16.6	1
93	4260	16.7	1
93	4309	16.8	1
93	4391	16.9	1
93	4405	17	0.99987253027406
93	4413	17.1	0.99388145315488
93	4425	17.2	0.98215423836839
93	4470	17.3	0.86985340981517
93	4556	17.4	0.84933078393881
93	4565	17.5	0.83263224984066
93	4577	17.6	0.81835564053537
93	4585	17.7	0.80675589547482
93	4634	17.8	0.69152326322498
93	4716	17.9	0.6912683237731
93	4730	18	1
93	4738	18.1	1
93	4750	18.2	1
93	4795	18.3	1
93	4845	18.4	1
93	4890	18.5	1
93	4902	18.6	1
93	4910	18.7	1
93	4959	18.8	1
93	5005	18.9	1
93	5055	19	1
93	5063	19.1	1
93	5075	19.2	1
93	5120	19.3	1
93	5170	19.4	1
93	5215	19.5	0.22523900573614
93	5227	19.6	0.21746335245379
93	5235	19.7	0.22740599107712
93	5284	19.8	0.25417463352454
93	5330	19.9	0.29445506692161
93	5380	20	0.69929891650733
93	5388	20.1	0.74429572976418
93	5400	20.2	0.79082217973231
93	5409	20.3	0.83887826641173
93	5495	20.4	0.35066921606119
93	5540	20.5	0.41606118546845
93	5552	20.6	0.48476736775016
93	5560	20.7	0.56163161249203
93	5573	20.8	0.64537922243467
93	5655	20.9	0.82103250478011
94	68	1	1
94	80	1.1	1
94	92	1.2	1
94	100	1.3	1
94	112	1.4	1
94	120	1.5	1
94	132	1.6	1
94	140	1.7	1
94	152	1.8	1
94	160	1.9	1
94	173	2	1
94	181	2.1	1
94	193	2.2	1
94	201	2.3	1
94	213	2.4	1
94	221	2.5	1
94	233	2.6	1
94	241	2.7	1
94	253	2.8	1
94	261	2.9	1
94	274	3	1
94	282	3.1	1
94	294	3.2	1
94	302	3.3	1
94	314	3.4	1
94	322	3.5	1
94	334	3.6	1
94	342	3.7	1
94	354	3.8	1
94	362	3.9	1
94	411	4	1
94	419	4.1	1
94	431	4.2	1
94	439	4.3	1
94	451	4.4	1
94	493	4.5	1
94	505	4.6	1
94	513	4.7	1
94	525	4.8	1
94	533	4.9	1
94	580	5	1
94	588	5.1	1
94	600	5.2	1
94	608	5.3	1
94	620	5.4	1
94	662	5.5	1
94	674	5.6	1
94	682	5.7	1
94	731	5.8	1
94	781	5.9	1
94	831	6	1
94	839	6.1	1
94	851	6.2	1
94	896	6.3	1
94	946	6.4	1
94	991	6.5	1
94	1003	6.6	1
94	1011	6.7	1
94	1060	6.8	1
94	1106	6.9	1
94	1156	7	1
94	1164	7.1	1
94	1176	7.2	1
94	1221	7.3	1
94	1271	7.4	1
94	1316	7.5	1
94	1328	7.6	1
94	1336	7.7	1
94	1385	7.8	1
94	1431	7.9	1
94	1481	8	1
94	1489	8.1	1
94	1501	8.2	1
94	1546	8.3	1
94	1596	8.4	1
94	1641	8.5	1
94	1653	8.6	1
94	1661	8.7	1
94	1710	8.8	1
94	1756	8.9	1
94	1806	9	1
94	1814	9.1	1
94	1826	9.2	1
94	1871	9.3	0.96137667304015
94	1921	9.4	0.96124920331421
94	1966	9.5	0.96073932441045
94	1978	9.6	0.96022944550669
94	1986	9.7	0.95971956660293
94	2035	9.8	0.95130656469089
94	2081	9.9	0.95041427660931
94	2131	10	0.95015933715743
94	2139	10.1	0.94939451880178
94	2151	10.2	0.94901210962396
94	2196	10.3	0.84002549394519
94	2246	10.4	0.84219247928617
94	2291	10.5	0.84525175270873
94	2303	10.6	0.84945825366475
94	2311	10.7	0.85634161886552
94	2360	10.8	0.76545570427024
94	2406	10.9	0.77756532823454
94	2456	11	0.79184193753983
94	2464	11.1	0.80713830465265
94	2476	11.2	0.82472912683238
94	2521	11.3	0.88922880815806
94	2571	11.4	0.90567240280433
94	2616	11.5	0.92007648183556
94	2628	11.6	0.93282345442957
94	2636	11.7	0.944678138942
94	2685	11.8	1
94	2731	11.9	1
94	2781	12	1
94	2789	12.1	1
94	2801	12.2	1
94	2846	12.3	1
94	2896	12.4	1
94	2941	12.5	1
94	2953	12.6	1
94	2961	12.7	1
94	3010	12.8	1
94	3056	12.9	1
94	3106	13	1
94	3114	13.1	1
94	3126	13.2	1
94	3171	13.3	1
94	3257	13.4	0.37501593371574
94	3266	13.5	0.37820267686424
94	3278	13.6	0.39349904397706
94	3286	13.7	0.42230720203952
94	3335	13.8	0.46258763543658
94	3417	13.9	0.70044614404079
94	3431	14	0.74123645634162
94	3439	14.1	0.77858508604206
94	3451	14.2	0.81325685149777
94	3496	14.3	0.84219247928617
94	3582	14.4	0.99337157425112
94	3591	14.5	0.9993626513703
94	3603	14.6	1
94	3611	14.7	1
94	3660	14.8	1
94	3742	14.9	1
94	3756	15	1
94	3764	15.1	1
94	3776	15.2	1
94	3821	15.3	1
94	3907	15.4	1
94	3916	15.5	1
94	3928	15.6	1
94	3936	15.7	1
94	3985	15.8	1
94	4067	15.9	1
94	4081	16	1
94	4089	16.1	1
94	4101	16.2	1
94	4146	16.3	1
94	4232	16.4	1
94	4241	16.5	1
94	4253	16.6	1
94	4261	16.7	1
94	4310	16.8	1
94	4392	16.9	1
94	4406	17	1
94	4414	17.1	1
94	4426	17.2	1
94	4471	17.3	1
94	4557	17.4	1
94	4566	17.5	1
94	4578	17.6	1
94	4586	17.7	1
94	4635	17.8	1
94	4717	17.9	1
94	4731	18	1
94	4739	18.1	1
94	4751	18.2	1
94	4796	18.3	1
94	4846	18.4	1
94	4891	18.5	0.88604206500956
94	4903	18.6	0.8842574888464
94	4911	18.7	0.8836201402167
94	4960	18.8	0.88502230720204
94	5006	18.9	0.88718929254302
94	5056	19	1
94	5064	19.1	1
94	5076	19.2	1
94	5121	19.3	1
94	5171	19.4	1
94	5216	19.5	1
94	5228	19.6	1
94	5236	19.7	1
94	5285	19.8	1
94	5331	19.9	1
94	5381	20	1
94	5389	20.1	1
94	5401	20.2	1
94	5410	20.3	1
94	5496	20.4	0.33970681963034
94	5541	20.5	0.26462715105163
94	5553	20.6	0.26972594008923
94	5561	20.7	0.2810707456979
94	5574	20.8	0.29407265774379
94	5656	20.9	0.65965583173996
95	69	1	1
95	81	1.1	1
95	93	1.2	1
95	101	1.3	1
95	113	1.4	1
95	121	1.5	1
95	133	1.6	1
95	141	1.7	1
95	153	1.8	1
95	161	1.9	1
95	174	2	1
95	182	2.1	1
95	194	2.2	1
95	202	2.3	1
95	214	2.4	1
95	222	2.5	1
95	234	2.6	1
95	242	2.7	1
95	254	2.8	1
95	262	2.9	1
95	275	3	1
95	283	3.1	1
95	295	3.2	1
95	303	3.3	1
95	315	3.4	1
95	323	3.5	1
95	335	3.6	1
95	343	3.7	1
95	355	3.8	1
95	363	3.9	1
95	412	4	1
95	420	4.1	1
95	432	4.2	1
95	440	4.3	1
95	452	4.4	1
95	494	4.5	1
95	506	4.6	1
95	514	4.7	1
95	526	4.8	1
95	534	4.9	1
95	581	5	1
95	589	5.1	1
95	601	5.2	1
95	609	5.3	1
95	621	5.4	1
95	663	5.5	1
95	675	5.6	1
95	683	5.7	1
95	732	5.8	1
95	782	5.9	0
95	832	6	0.00012746972594009
95	840	6.1	0.00063734862970045
95	852	6.2	0.0048438495857234
95	897	6.3	0.016826003824092
95	947	6.4	0.030847673677502
95	992	6.5	0.041937539834289
95	1004	6.6	0.052007648183556
95	1012	6.7	0.066666666666667
95	1061	6.8	0.083747609942639
95	1107	6.9	0.23722115997451
95	1157	7	0.75882727852135
95	1165	7.1	0.77539834289356
95	1177	7.2	0.78967495219885
95	1222	7.3	0.80267686424474
95	1272	7.4	0.95156150414277
95	1317	7.5	1
95	1329	7.6	1
95	1337	7.7	1
95	1386	7.8	1
95	1432	7.9	1
95	1482	8	1
95	1490	8.1	1
95	1502	8.2	1
95	1547	8.3	1
95	1597	8.4	1
95	1642	8.5	0.97833014659018
95	1654	8.6	0.95385595920969
95	1662	8.7	0.92504780114723
95	1711	8.8	0.89445506692161
95	1757	8.9	0.86195028680688
95	1807	9	0.689356277884
95	1815	9.1	0.66003824091778
95	1827	9.2	0.63683875079669
95	1872	9.3	0.62332695984704
95	1922	9.4	0.58534098151689
95	1967	9.5	0.52785213511791
95	1979	9.6	0.53295092415551
95	1987	9.7	0.54251115360102
95	2036	9.8	0.55704270235819
95	2082	9.9	0.56864244741874
95	2132	10	0.68642447418738
95	2140	10.1	0.69445506692161
95	2152	10.2	0.70057361376673
95	2197	10.3	0.70337794773741
95	2247	10.4	0.70121096239643
95	2292	10.5	0.76940726577438
95	2304	10.6	0.75117909496495
95	2312	10.7	0.74059910771192
95	2361	10.8	0.73728489483748
95	2407	10.9	0.77335882727852
95	2457	11	0.78215423836839
95	2465	11.1	0.79579349904398
95	2477	11.2	0.81771829190567
95	2522	11.3	0.84486934353091
95	2572	11.4	0.94174633524538
95	2617	11.5	0.96379859783301
95	2629	11.6	0.98215423836839
95	2637	11.7	0.99273422562141
95	2686	11.8	0.98495857233907
95	2732	11.9	0.9678776290631
95	2782	12	0.85812619502868
95	2790	12.1	0.83224984066284
95	2802	12.2	0.80866794136393
95	2847	12.3	0.78878266411727
95	2897	12.4	0.7729764181007
95	2942	12.5	0.67163798597833
95	2954	12.6	0.66488209050351
95	2962	12.7	0.66500956022945
95	3011	12.8	0.67227533460803
95	3057	12.9	0.68591459528362
95	3107	13	0.73078393881453
95	3115	13.1	0.75079668578713
95	3127	13.2	0.7742511153601
95	3172	13.3	0.80038240917782
95	3258	13.4	0.827660930529
95	3267	13.5	0.85302740599108
95	3279	13.6	0.87775653282345
95	3287	13.7	0.89980879541109
95	3336	13.8	0.91778202676864
95	3418	13.9	0.81465901848311
95	3432	14	0.81695347355003
95	3440	14.1	0.81720841300191
95	3452	14.2	0.81580624601657
95	3497	14.3	0.81096239643085
95	3583	14.4	0.62230720203952
95	3592	14.5	0.62562141491396
95	3604	14.6	0.63505417463352
95	3612	14.7	0.65379222434672
95	3661	14.8	0.67648183556405
95	3743	14.9	0.710643722116
95	3757	15	0.73804971319312
95	3765	15.1	0.76711281070746
95	3777	15.2	0.79847036328872
95	3822	15.3	0.83135755258126
95	3908	15.4	0.95984703632887
95	3917	15.5	0.97654557042702
95	3929	15.6	0.99043977055449
95	3937	15.7	0.99821542383684
95	3986	15.8	1
95	4068	15.9	1
95	4082	16	0.99885277246654
95	4090	16.1	0.99502868068834
95	4102	16.2	0.98763543658381
95	4147	16.3	0.97654557042702
95	4233	16.4	0.96277884002549
95	4242	16.5	0.9465901848311
95	4254	16.6	0.92861695347355
95	4262	16.7	0.90822179732314
95	4311	16.8	0.88578712555768
95	4393	16.9	0.8604206500956
95	4407	17	0.83123008285532
95	4415	17.1	0.80114722753346
95	4427	17.2	0.77246653919694
95	4472	17.3	0.74455066921606
95	4558	17.4	0.60790312300829
95	4567	17.5	0.58521351179095
95	4579	17.6	0.5672402804334
95	4587	17.7	0.55309114085405
95	4636	17.8	0.54697259400892
95	4718	17.9	0.48349267049076
95	4732	18	0.4842574888464
95	4740	18.1	0.49024856596558
95	4752	18.2	0.50031867431485
95	4797	18.3	0.51523263224984
95	4847	18.4	0.53486297004461
95	4892	18.5	0.70376035691523
95	4904	18.6	0.72249840662843
95	4912	18.7	0.74582536647546
95	4961	18.8	0.772339069471
95	5007	18.9	0.80140216698534
95	5057	19	0.82982791586998
95	5065	19.1	0.85621414913958
95	5077	19.2	0.88285532186106
95	5122	19.3	0.90783938814532
95	5172	19.4	1
95	5217	19.5	1
95	5229	19.6	1
95	5237	19.7	1
95	5286	19.8	1
95	5332	19.9	1
95	5382	20	1
95	5390	20.1	1
95	5402	20.2	1
95	5411	20.3	1
95	5497	20.4	1
95	5542	20.5	1
95	5554	20.6	1
95	5562	20.7	1
95	5575	20.8	1
95	5657	20.9	1
