file 8055844 1475762533                                         
version 2
run General-0-20161006-15:46:57-14904
attr configname General
attr datetime 20161006-15:46:57
attr experiment General
attr inifile omnetpp.ini
attr iterationvars ""
attr iterationvars2 $repetition=0
attr measurement ""
attr network Net80211test
attr processid 14904
attr repetition 0
attr replication #0
attr resultdir results
attr runnumber 0
attr seedset 0
param **.constraintAreaMaxX 600m
param **.constraintAreaMaxY 400m
param **.constraintAreaMaxZ 0m
param **.constraintAreaMinX 0m
param **.constraintAreaMinY 0m
param **.constraintAreaMinZ 0m
param **.host*.mobility.defaultStiffness 0.5
param **.host*.mobility.initFromDisplayString false
param **.host*.mobility.initialX "normal(300m, 50m)"
param **.host*.mobility.initialY "normal(200m, 50m)"
param **.host*.mobility.updateInterval 100ms
param **.host*.mobilityType "\"VirtualSpringMobility\""
param **.host[*].battery.dischargingFactor 100W
param **.host[*].battery.flightHeight 20m
param **.host[*].battery.initialCapacity 100000J
param **.host[*].battery.nominalCapacity 1000000J
param **.host[*].battery.swapHeightFactor 0J
param **.host[*].networkLayerType "\"IPv4ExtNetworkLayer\""
param **.host[*].udpType "\"UDPExt\""
param **.ip.forceBroadcast true
param **.udpApp[0].chargingStationNumber 1
param **.udpApp[0].checkRechargeTimer 20s
param **.udpApp[0].destAddresses "\"255.255.255.255\""
param **.udpApp[0].destPort 100
param **.udpApp[0].isCentralized true
param **.udpApp[0].localAddress "\"\""
param **.udpApp[0].localPort 100
param **.udpApp[0].messageLength 512B
param **.udpApp[0].receiveBroadcast true
param **.udpApp[0].schedulingType "\"ANALYTICAL\""
param **.udpApp[0].sendInterval "truncnormal(1s, 0.02s)"
param **.udpApp[0].startTime 0s
param **.wlan[*].bitrate 2Mbps
param **.wlan[*].mac.address "\"auto\""
param **.wlan[*].mac.cwMinBroadcast 31
param **.wlan[*].mac.cwMinData 7
param **.wlan[*].mac.maxQueueSize 14
param **.wlan[*].mac.retryLimit 7
param **.wlan[*].mac.rtsThresholdBytes 3000B
param **.wlan[*].macType "\"Ieee80211MacExt\""
param **.wlan[*].mgmt.frameCapacity 10
param **.wlan[*].mgmtType "\"Ieee80211MgmtAdhocExt\""
param **.wlan[*].radio.receiver.sensitivity -85dBm
param **.wlan[*].radio.receiver.snirThreshold 4dB
param **.wlan[*].radio.receiverType "\"Ieee80211ScalarReceiverExt\""
param **.wlan[*].radio.transmitter.power 100mW
param *.host[*].numUdpApps 1
param *.host[*].udpApp[*].typename "\"UDPBasicRecharge\""
param *.numHosts 4

vector 22  Net80211test.host[0].wlan[0].mac.ctn[0]  state:vector  ETV
attr interpolationmode  none
attr source  stateChanged
attr title  "contention state, vector"
vector 45  Net80211test.host[1].wlan[0].mac.ctn[0]  state:vector  ETV
attr interpolationmode  none
attr source  stateChanged
attr title  "contention state, vector"
vector 68  Net80211test.host[2].wlan[0].mac.ctn[0]  state:vector  ETV
attr interpolationmode  none
attr source  stateChanged
attr title  "contention state, vector"
vector 91  Net80211test.host[3].wlan[0].mac.ctn[0]  state:vector  ETV
attr interpolationmode  none
attr source  stateChanged
attr title  "contention state, vector"
vector 18  Net80211test.host[0].wlan[0].radio  radioMode:vector  ETV
attr interpolationmode  sample-hold
attr source  radioModeChanged
attr title  "Radio mode, vector"
vector 21  Net80211test.host[0].wlan[0].radio  radioChannel:vector  ETV
attr interpolationmode  sample-hold
attr source  radioChannelChanged
attr title  "Radio channel, vector"
vector 41  Net80211test.host[1].wlan[0].radio  radioMode:vector  ETV
attr interpolationmode  sample-hold
attr source  radioModeChanged
attr title  "Radio mode, vector"
vector 44  Net80211test.host[1].wlan[0].radio  radioChannel:vector  ETV
attr interpolationmode  sample-hold
attr source  radioChannelChanged
attr title  "Radio channel, vector"
vector 64  Net80211test.host[2].wlan[0].radio  radioMode:vector  ETV
attr interpolationmode  sample-hold
attr source  radioModeChanged
attr title  "Radio mode, vector"
vector 67  Net80211test.host[2].wlan[0].radio  radioChannel:vector  ETV
attr interpolationmode  sample-hold
attr source  radioChannelChanged
attr title  "Radio channel, vector"
vector 87  Net80211test.host[3].wlan[0].radio  radioMode:vector  ETV
attr interpolationmode  sample-hold
attr source  radioModeChanged
attr title  "Radio mode, vector"
vector 90  Net80211test.host[3].wlan[0].radio  radioChannel:vector  ETV
attr interpolationmode  sample-hold
attr source  radioChannelChanged
attr title  "Radio channel, vector"
vector 19  Net80211test.host[0].wlan[0].radio  receptionState:vector  ETV
attr interpolationmode  sample-hold
attr source  receptionStateChanged
attr title  "Radio reception state, vector"
vector 42  Net80211test.host[1].wlan[0].radio  receptionState:vector  ETV
attr interpolationmode  sample-hold
attr source  receptionStateChanged
attr title  "Radio reception state, vector"
vector 65  Net80211test.host[2].wlan[0].radio  receptionState:vector  ETV
attr interpolationmode  sample-hold
attr source  receptionStateChanged
attr title  "Radio reception state, vector"
vector 88  Net80211test.host[3].wlan[0].radio  receptionState:vector  ETV
attr interpolationmode  sample-hold
attr source  receptionStateChanged
attr title  "Radio reception state, vector"
vector 1  Net80211test.host[0].udpApp[0]  sentPk:vector(packetBytes)  ETV
attr interpolationmode  none
attr source  sentPk
attr title  "packets sent, vector(packetBytes)"
vector 24  Net80211test.host[1].udpApp[0]  sentPk:vector(packetBytes)  ETV
attr interpolationmode  none
attr source  sentPk
attr title  "packets sent, vector(packetBytes)"
vector 47  Net80211test.host[2].udpApp[0]  sentPk:vector(packetBytes)  ETV
attr interpolationmode  none
attr source  sentPk
attr title  "packets sent, vector(packetBytes)"
vector 4  Net80211test.host[0].udp  sentPk:vector(packetBytes)  ETV
attr interpolationmode  none
attr source  sentPk
attr title  "packets sent, vector(packetBytes)"
vector 27  Net80211test.host[1].udp  sentPk:vector(packetBytes)  ETV
attr interpolationmode  none
attr source  sentPk
attr title  "packets sent, vector(packetBytes)"
vector 50  Net80211test.host[2].udp  sentPk:vector(packetBytes)  ETV
attr interpolationmode  none
attr source  sentPk
attr title  "packets sent, vector(packetBytes)"
vector 12  Net80211test.host[0].lo0.lo  rcvdPkFromHL:vector(packetBytes)  ETV
attr interpolationmode  none
attr source  packetReceivedFromUpper
attr title  "packets received from higher layer, vector(packetBytes)"
vector 13  Net80211test.host[0].lo0.lo  passedUpPk:vector(packetBytes)  ETV
attr interpolationmode  none
attr source  packetSentToUpper
attr title  "packets passed to higher layer, vector(packetBytes)"
vector 35  Net80211test.host[1].lo0.lo  rcvdPkFromHL:vector(packetBytes)  ETV
attr interpolationmode  none
attr source  packetReceivedFromUpper
attr title  "packets received from higher layer, vector(packetBytes)"
vector 36  Net80211test.host[1].lo0.lo  passedUpPk:vector(packetBytes)  ETV
attr interpolationmode  none
attr source  packetSentToUpper
attr title  "packets passed to higher layer, vector(packetBytes)"
vector 58  Net80211test.host[2].lo0.lo  rcvdPkFromHL:vector(packetBytes)  ETV
attr interpolationmode  none
attr source  packetReceivedFromUpper
attr title  "packets received from higher layer, vector(packetBytes)"
vector 59  Net80211test.host[2].lo0.lo  passedUpPk:vector(packetBytes)  ETV
attr interpolationmode  none
attr source  packetSentToUpper
attr title  "packets passed to higher layer, vector(packetBytes)"
vector 16  Net80211test.host[0].wlan[0].mac  rcvdPkFromHL:vector(packetBytes)  ETV
attr interpolationmode  none
attr source  packetReceivedFromUpper
attr title  "packets received from higher layer, vector(packetBytes)"
vector 39  Net80211test.host[1].wlan[0].mac  rcvdPkFromHL:vector(packetBytes)  ETV
attr interpolationmode  none
attr source  packetReceivedFromUpper
attr title  "packets received from higher layer, vector(packetBytes)"
vector 62  Net80211test.host[2].wlan[0].mac  rcvdPkFromHL:vector(packetBytes)  ETV
attr interpolationmode  none
attr source  packetReceivedFromUpper
attr title  "packets received from higher layer, vector(packetBytes)"
vector 5  Net80211test.host[0].udp  rcvdPk:vector(packetBytes)  ETV
attr interpolationmode  none
attr source  rcvdPk
attr title  "packets received, vector(packetBytes)"
vector 6  Net80211test.host[0].udp  passedUpPk:vector(count)  ETV
attr interpolationmode  none
attr title  "packets passed up, vector(count)"
vector 28  Net80211test.host[1].udp  rcvdPk:vector(packetBytes)  ETV
attr interpolationmode  none
attr source  rcvdPk
attr title  "packets received, vector(packetBytes)"
vector 29  Net80211test.host[1].udp  passedUpPk:vector(count)  ETV
attr interpolationmode  none
attr title  "packets passed up, vector(count)"
vector 51  Net80211test.host[2].udp  rcvdPk:vector(packetBytes)  ETV
attr interpolationmode  none
attr source  rcvdPk
attr title  "packets received, vector(packetBytes)"
vector 52  Net80211test.host[2].udp  passedUpPk:vector(count)  ETV
attr interpolationmode  none
attr title  "packets passed up, vector(count)"
vector 0  Net80211test.host[0].udpApp[0]  rcvdPk:vector(packetBytes)  ETV
attr interpolationmode  none
attr source  rcvdPk
attr title  "packets received, vector(packetBytes)"
vector 2  Net80211test.host[0].udpApp[0]  rcvdPkLifetime:vector  ETV
attr interpolationmode  none
attr source  messageAge(rcvdPk)
attr title  "received packet lifetime, vector"
attr unit  s
vector 23  Net80211test.host[1].udpApp[0]  rcvdPk:vector(packetBytes)  ETV
attr interpolationmode  none
attr source  rcvdPk
attr title  "packets received, vector(packetBytes)"
vector 25  Net80211test.host[1].udpApp[0]  rcvdPkLifetime:vector  ETV
attr interpolationmode  none
attr source  messageAge(rcvdPk)
attr title  "received packet lifetime, vector"
attr unit  s
vector 46  Net80211test.host[2].udpApp[0]  rcvdPk:vector(packetBytes)  ETV
attr interpolationmode  none
attr source  rcvdPk
attr title  "packets received, vector(packetBytes)"
vector 48  Net80211test.host[2].udpApp[0]  rcvdPkLifetime:vector  ETV
attr interpolationmode  none
attr source  messageAge(rcvdPk)
attr title  "received packet lifetime, vector"
attr unit  s
vector 38  Net80211test.host[1].wlan[0].mac  sentDownPk:vector(packetBytes)  ETV
attr interpolationmode  none
attr source  packetSentToLower
attr title  "packets sent to lower layer, vector(packetBytes)"
vector 43  Net80211test.host[1].wlan[0].radio  transmissionState:vector  ETV
attr interpolationmode  sample-hold
attr source  transmissionStateChanged
attr title  "Radio transmission state, vector"
vector 17  Net80211test.host[0].wlan[0].mac  rcvdPkFromLL:vector(packetBytes)  ETV
attr interpolationmode  none
attr source  packetReceivedFromLower
attr title  "packets received from lower layer, vector(packetBytes)"
vector 14  Net80211test.host[0].wlan[0].mac  passedUpPk:vector(packetBytes)  ETV
attr interpolationmode  none
attr source  packetSentToUpper
attr title  "packets passed to higher layer, vector(packetBytes)"
vector 63  Net80211test.host[2].wlan[0].mac  rcvdPkFromLL:vector(packetBytes)  ETV
attr interpolationmode  none
attr source  packetReceivedFromLower
attr title  "packets received from lower layer, vector(packetBytes)"
vector 60  Net80211test.host[2].wlan[0].mac  passedUpPk:vector(packetBytes)  ETV
attr interpolationmode  none
attr source  packetSentToUpper
attr title  "packets passed to higher layer, vector(packetBytes)"
vector 86  Net80211test.host[3].wlan[0].mac  rcvdPkFromLL:vector(packetBytes)  ETV
attr interpolationmode  none
attr source  packetReceivedFromLower
attr title  "packets received from lower layer, vector(packetBytes)"
vector 83  Net80211test.host[3].wlan[0].mac  passedUpPk:vector(packetBytes)  ETV
attr interpolationmode  none
attr source  packetSentToUpper
attr title  "packets passed to higher layer, vector(packetBytes)"
vector 74  Net80211test.host[3].udp  rcvdPk:vector(packetBytes)  ETV
attr interpolationmode  none
attr source  rcvdPk
attr title  "packets received, vector(packetBytes)"
vector 75  Net80211test.host[3].udp  passedUpPk:vector(count)  ETV
attr interpolationmode  none
attr title  "packets passed up, vector(count)"
vector 15  Net80211test.host[0].wlan[0].mac  sentDownPk:vector(packetBytes)  ETV
attr interpolationmode  none
attr source  packetSentToLower
attr title  "packets sent to lower layer, vector(packetBytes)"
vector 20  Net80211test.host[0].wlan[0].radio  transmissionState:vector  ETV
attr interpolationmode  sample-hold
attr source  transmissionStateChanged
attr title  "Radio transmission state, vector"
vector 40  Net80211test.host[1].wlan[0].mac  rcvdPkFromLL:vector(packetBytes)  ETV
attr interpolationmode  none
attr source  packetReceivedFromLower
attr title  "packets received from lower layer, vector(packetBytes)"
vector 37  Net80211test.host[1].wlan[0].mac  passedUpPk:vector(packetBytes)  ETV
attr interpolationmode  none
attr source  packetSentToUpper
attr title  "packets passed to higher layer, vector(packetBytes)"
vector 61  Net80211test.host[2].wlan[0].mac  sentDownPk:vector(packetBytes)  ETV
attr interpolationmode  none
attr source  packetSentToLower
attr title  "packets sent to lower layer, vector(packetBytes)"
vector 66  Net80211test.host[2].wlan[0].radio  transmissionState:vector  ETV
attr interpolationmode  sample-hold
attr source  transmissionStateChanged
attr title  "Radio transmission state, vector"
vector 93  Net80211test.host[0].udpApp[0]  activeNodes  ETV
vector 94  Net80211test.host[0].udpApp[0]  rechargingNodes  ETV
vector 101  Net80211test.host[0].udpApp[0]  EnergyVal  ETV
vector 111  Net80211test.host[1].udpApp[0]  EnergyVal  ETV
vector 121  Net80211test.host[2].udpApp[0]  EnergyVal  ETV
vector 131  Net80211test.host[3].udpApp[0]  EnergyVal  ETV
vector 70  Net80211test.host[3].udpApp[0]  sentPk:vector(packetBytes)  ETV
attr interpolationmode  none
attr source  sentPk
attr title  "packets sent, vector(packetBytes)"
vector 73  Net80211test.host[3].udp  sentPk:vector(packetBytes)  ETV
attr interpolationmode  none
attr source  sentPk
attr title  "packets sent, vector(packetBytes)"
vector 81  Net80211test.host[3].lo0.lo  rcvdPkFromHL:vector(packetBytes)  ETV
attr interpolationmode  none
attr source  packetReceivedFromUpper
attr title  "packets received from higher layer, vector(packetBytes)"
vector 82  Net80211test.host[3].lo0.lo  passedUpPk:vector(packetBytes)  ETV
attr interpolationmode  none
attr source  packetSentToUpper
attr title  "packets passed to higher layer, vector(packetBytes)"
vector 85  Net80211test.host[3].wlan[0].mac  rcvdPkFromHL:vector(packetBytes)  ETV
attr interpolationmode  none
attr source  packetReceivedFromUpper
attr title  "packets received from higher layer, vector(packetBytes)"
vector 69  Net80211test.host[3].udpApp[0]  rcvdPk:vector(packetBytes)  ETV
attr interpolationmode  none
attr source  rcvdPk
attr title  "packets received, vector(packetBytes)"
vector 71  Net80211test.host[3].udpApp[0]  rcvdPkLifetime:vector  ETV
attr interpolationmode  none
attr source  messageAge(rcvdPk)
attr title  "received packet lifetime, vector"
attr unit  s
vector 84  Net80211test.host[3].wlan[0].mac  sentDownPk:vector(packetBytes)  ETV
attr interpolationmode  none
attr source  packetSentToLower
attr title  "packets sent to lower layer, vector(packetBytes)"
vector 89  Net80211test.host[3].wlan[0].radio  transmissionState:vector  ETV
attr interpolationmode  sample-hold
attr source  transmissionStateChanged
attr title  "Radio transmission state, vector"
0	15517 94948 46 250102 0 1419.830291536304 3242 512 512 1659904 849870848
1	110465 31667 13 250010 0 1419.584834441662 1081 512 512 553472 283377664
2	142132 116535 46 250102 0 1419.830291536304 3242 0 0.001276 0.482942409838 0.00010948923775353
4	258667 31667 19 250011 0 1419.584834441662 1081 520 520 562120 292302400
5	290334 126437 43 250101 0 1419.830291536304 4263 520 520 2216760 1152715200
6	416771 129593 43 250101 0 1419.830291536304 4263 1 4263 9088716 25833160444
12	546364 32748 31 250013 0 1419.584834441662 1081 540 540 583740 315219600
13	579112 32748 31 250013 0 1419.584834441662 1081 540 540 583740 315219600
14	611860 97952 61 250098 0.000352 1419.830291536304 3182 576 576 1832832 1055711232
15	709812 32755 77 250020 0.000682 1419.584834441662 1081 576 576 622656 358649856
16	742567 32748 38 250016 0 1419.584834441662 1081 576 576 622656 358649856
17	775315 97952 61 250098 0.000352 1419.830291536304 3182 576 576 1832832 1055711232
18	873267 61204 0 250027 0 1419.585056441662 2164 0 3 5407 14057
19	934471 244369 0 250097 0 1419.830291536304 8527 0 3 13810 32902
20	1178840 122372 78 250027 0.000682 1419.585056441662 4324 0 2 4324 6486
21	1301212 9 0 0 0 0 1 0 0 0 0
22	1301221 672300 0 250097 0 1419.830291536304 23542 0 3 17304 47576
23	1973521 99179 47 250096 0 1419.830291521587 3244 512 512 1660928 850395136
24	2072700 33018 14 249957 0 1419.21219561343 1080 512 512 552960 283115520
25	2105718 120800 47 250096 0 1419.830291521587 3244 0 0.001276 0.48412261879299 0.00011052713709283
27	2226518 33018 22 249958 0 1419.21219561343 1080 520 520 561600 292032000
28	2259536 130716 44 250095 0 1419.830291521587 4263 520 520 2216760 1152715200
29	2390252 133872 44 250095 0 1419.830291521587 4263 1 4263 9088716 25833160444
35	2524124 33018 33 249960 0 1419.21219561343 1080 540 540 583200 314928000
36	2557142 33018 33 249960 0 1419.21219561343 1080 540 540 583200 314928000
37	2590160 97698 88 250092 0.000904 1419.830291521587 3183 576 576 1833408 1056043008
38	2687858 33024 50 249967 0.00013 1419.21219561343 1080 576 576 622080 358318080
39	2720882 33018 40 249963 0 1419.21219561343 1080 576 576 622080 358318080
40	2753900 97698 88 250092 0.000904 1419.830291521587 3183 576 576 1833408 1056043008
41	2851598 61747 0 249974 0 1419.21241761343 2162 0 3 5402 14044
42	2913345 244401 0 250091 0 1419.830291521587 8527 0 3 13813 32911
43	3157746 123458 51 249974 0.00013 1419.21241761343 4320 0 2 4320 6480
44	3281204 9 0 0 0 0 1 0 0 0 0
45	3281213 673994 0 250091 0 1419.830291521587 23536 0 3 17280 47520
46	3955207 99774 48 250076 0 1419.830069249556 3242 512 512 1659904 849870848
47	4054981 33284 15 250067 0 1419.830069249556 1081 512 512 553472 283377664
48	4088265 121362 48 250076 0 1419.830069249556 3242 0 0.000904 0.48261282385699 0.00010896048472348
50	4209627 33284 25 250068 0 1419.830069249556 1081 520 520 562120 292302400
51	4242911 130684 45 250074 0 1419.830069249556 4263 520 520 2216760 1152715200
52	4373595 133840 45 250074 0 1419.830069249556 4263 1 4263 9088716 25833160444
58	4507435 33284 35 250070 0 1419.830069249556 1081 540 540 583740 315219600
59	4540719 33284 35 250070 0 1419.830069249556 1081 540 540 583740 315219600
60	4574003 97400 62 250035 0.000352 1419.58505672841 3182 576 576 1832832 1055711232
61	4671403 33292 104 250077 0.001054 1419.830069249556 1081 576 576 622656 358649856
62	4704695 33284 42 250073 0 1419.830069249556 1081 576 576 622656 358649856
63	4737979 97400 62 250035 0.000352 1419.58505672841 3182 576 576 1832832 1055711232
64	4835379 62278 0 250084 0 1419.830291249556 2164 0 3 5407 14057
65	4897657 244339 0 250084 0 1419.830291249556 8527 0 3 13810 32902
66	5141996 124520 105 250084 0.001054 1419.830291249556 4324 0 2 4324 6486
67	5266516 9 0 0 0 0 1 0 0 0 0
68	5266525 675460 0 250084 0 1419.830291249556 23542 0 3 17310 47586
69	5941985 94949 59961 239518 340.000987249509 1359.931678772094 3061 512 512 1567232 802422784
70	6036934 31673 59952 239509 340.000987249509 1359.931678772094 1021 512 512 522752 267649024
71	6068607 115334 59961 239518 340.000987249509 1359.931678772094 3061 0 0.000222514223 0.45349920811099 0.00010081448039422
73	6183941 31673 59953 239510 340.000987249509 1359.931678772094 1021 520 520 530920 276078400
74	6215614 130695 72 250089 0.000352 1419.830291297682 4263 520 520 2216760 1152715200
75	6346309 133851 72 250089 0.000352 1419.830291297682 4263 1 4263 9088716 25833160444
81	6480160 31673 59955 239512 340.000987249509 1359.931678772094 1021 540 540 551340 297723600
82	6511833 31673 59955 239512 340.000987249509 1359.931678772094 1021 540 540 551340 297723600
83	6543506 99022 63 250086 0.000352 1419.830291297682 3242 576 576 1867392 1075617792
84	6642528 31673 59962 239519 340.000987249509 1359.931678772094 1021 576 576 588096 338743296
85	6674201 31673 59958 239515 340.000987249509 1359.931678772094 1021 576 576 588096 338743296
86	6705874 99022 63 250086 0.000352 1419.830291297682 3242 576 576 1867392 1075617792
87	6804896 59280 0 239526 0 1359.931900772094 2044 0 3 5107 13277
88	6864176 244345 0 250085 0 1419.830291297682 8527 0 3 13990 33442
89	7108521 118524 59963 239526 340.000987249509 1359.931900772094 4084 0 2 4084 6126
90	7227045 9 0 0 0 0 1 0 0 0 0
91	7227054 666494 0 250085 0 1419.830291297682 23182 0 3 16338 44926
93	7893548 22388 259 249933 1 1419 1419 3 3 4257 12771
94	7915936 22388 259 249933 1 1419 1419 1 1 1419 1419
101	7938324 28986 259 249933 1 1419 1419 600 99900 52604750 3347495043750
111	7967310 29360 260 249934 1 1419 1419 600 99900 65354750 3909770043750
121	7996670 29360 261 249935 1 1419 1419 600 99900 78104750 5291445043750
131	8026030 29814 262 249936 1 1419 1419 6500 108500 94476000 7952038075000
